[Format]      =  4.0
[Frequency]   =  0
[Precision]   =  1e-008
[MinAngle]    =  25
[Depth]       =  101
[LengthUnits] =  millimeters
[ProblemType] =  planar
[Coordinates] =  cartesian
[ACSolver]    =  0
[Comment]     =  "Add comments here."
[PointProps]   = 0
[BdryProps]   = 9
  <BeginBdry>
    <BdryName> = "A=0"
    <BdryType> = 0
    <A_0> = 0
    <A_1> = 0
    <A_2> = 0
    <Phi> = 0
    <c0> = 0
    <c0i> = 0
    <c1> = 0
    <c1i> = 0
    <Mu_ssd> = 0
    <Sigma_ssd> = 0
  <EndBdry>
  <BeginBdry>
    <BdryName> = "APr1"
    <BdryType> = 5
    <A_0> = 0
    <A_1> = 0
    <A_2> = 0
    <Phi> = 0
    <c0> = 0
    <c0i> = 0
    <c1> = 0
    <c1i> = 0
    <Mu_ssd> = 0
    <Sigma_ssd> = 0
  <EndBdry>
  <BeginBdry>
    <BdryName> = "APr2"
    <BdryType> = 5
    <A_0> = 0
    <A_1> = 0
    <A_2> = 0
    <Phi> = 0
    <c0> = 0
    <c0i> = 0
    <c1> = 0
    <c1i> = 0
    <Mu_ssd> = 0
    <Sigma_ssd> = 0
  <EndBdry>
  <BeginBdry>
    <BdryName> = "APg1"
    <BdryType> = 5
    <A_0> = 0
    <A_1> = 0
    <A_2> = 0
    <Phi> = 0
    <c0> = 0
    <c0i> = 0
    <c1> = 0
    <c1i> = 0
    <Mu_ssd> = 0
    <Sigma_ssd> = 0
  <EndBdry>
  <BeginBdry>
    <BdryName> = "APg2"
    <BdryType> = 5
    <A_0> = 0
    <A_1> = 0
    <A_2> = 0
    <Phi> = 0
    <c0> = 0
    <c0i> = 0
    <c1> = 0
    <c1i> = 0
    <Mu_ssd> = 0
    <Sigma_ssd> = 0
  <EndBdry>
  <BeginBdry>
    <BdryName> = "APg3"
    <BdryType> = 5
    <A_0> = 0
    <A_1> = 0
    <A_2> = 0
    <Phi> = 0
    <c0> = 0
    <c0i> = 0
    <c1> = 0
    <c1i> = 0
    <Mu_ssd> = 0
    <Sigma_ssd> = 0
  <EndBdry>
  <BeginBdry>
    <BdryName> = "APmove"
    <BdryType> = 5
    <A_0> = 0
    <A_1> = 0
    <A_2> = 0
    <Phi> = 0
    <c0> = 0
    <c0i> = 0
    <c1> = 0
    <c1i> = 0
    <Mu_ssd> = 0
    <Sigma_ssd> = 0
  <EndBdry>
  <BeginBdry>
    <BdryName> = "APs1"
    <BdryType> = 5
    <A_0> = 0
    <A_1> = 0
    <A_2> = 0
    <Phi> = 0
    <c0> = 0
    <c0i> = 0
    <c1> = 0
    <c1i> = 0
    <Mu_ssd> = 0
    <Sigma_ssd> = 0
  <EndBdry>
  <BeginBdry>
    <BdryName> = "APs2"
    <BdryType> = 5
    <A_0> = 0
    <A_1> = 0
    <A_2> = 0
    <Phi> = 0
    <c0> = 0
    <c0i> = 0
    <c1> = 0
    <c1i> = 0
    <Mu_ssd> = 0
    <Sigma_ssd> = 0
  <EndBdry>
[BlockProps]  = 16
  <BeginBlock>
    <BlockName> = "Air"
    <Mu_x> = 1
    <Mu_y> = 1
    <H_c> = 0
    <H_cAngle> = 0
    <J_re> = 0
    <J_im> = 0
    <Sigma> = 0
    <d_lam> = 0
    <Phi_h> = 0
    <Phi_hx> = 0
    <Phi_hy> = 0
    <LamType> = 0
    <LamFill> = 1
    <NStrands> = 0
    <WireD> = 0
    <BHPoints> = 0
  <EndBlock>
  <BeginBlock>
    <BlockName> = "Copper"
    <Mu_x> = 1
    <Mu_y> = 1
    <H_c> = 0
    <H_cAngle> = 0
    <J_re> = 0
    <J_im> = 0
    <Sigma> = 58
    <d_lam> = 0
    <Phi_h> = 0
    <Phi_hx> = 0
    <Phi_hy> = 0
    <LamType> = 0
    <LamFill> = 1
    <NStrands> = 0
    <WireD> = 0
    <BHPoints> = 0
  <EndBlock>
  <BeginBlock>
    <BlockName> = "M-27 Steel"
    <Mu_x> = 12138
    <Mu_y> = 12138
    <H_c> = 0
    <H_cAngle> = 0
    <J_re> = 0
    <J_im> = 0
    <Sigma> = 2
    <d_lam> = 0.63500000000000001
    <Phi_h> = 0
    <Phi_hx> = 0
    <Phi_hy> = 0
    <LamType> = 0
    <LamFill> = 0.97999999999999998
    <NStrands> = 0
    <WireD> = 0
    <BHPoints> = 47
      0	0
      0.050000000000000003	17.059828
      0.10000000000000001	25.634971
      0.14999999999999999	31.338353999999999
      0.20000000000000001	35.778996999999997
      0.25	39.602124000000003
      0.29999999999999999	43.123142999999999
      0.34999999999999998	46.520439000000003
      0.40000000000000002	49.908177000000002
      0.45000000000000001	53.368284000000003
      0.5	56.966318000000001
      0.55000000000000004	60.760271000000003
      0.59999999999999998	64.806105000000002
      0.65000000000000002	69.161803000000006
      0.69999999999999996	73.890922000000003
      0.75	79.066315000000003
      0.80000000000000004	84.774675999999999
      0.84999999999999998	91.122721999999996
      0.90000000000000002	98.246298999999993
      0.94999999999999996	106.324591
      1	115.60341699999999
      1.05	126.435124
      1.1000000000000001	139.34975900000001
      1.1499999999999999	155.187082
      1.2	175.350538
      1.25	202.312017
      1.3	240.640455
      1.3500000000000001	299.11802699999998
      1.3999999999999999	394.99338599999999
      1.45	561.72617700000001
      1.5	859.32876299999998
      1.55	1375.4668879999999
      1.6000000000000001	2191.2469139999998
      1.6499999999999999	3328.145908
      1.7	4760.5061720000003
      1.75	6535.3394490000001
      1.8	8788.9706569999998
      1.8500000000000001	11670.804346999999
      1.8999999999999999	15385.186211
      1.95	20246.553030999999
      2	26995.131141000002
      2.0499999999999998	38724.496369
      2.1000000000000001	64917.284463000004
      2.1499999999999999	101489.30933800001
      2.2000000000000002	137202.82896099999
      2.25	176835.706764
      2.2999999999999998	216374.28360900001
  <EndBlock>
  <BeginBlock>
    <BlockName> = "NdFeB 37 MGOe"
    <Mu_x> = 1.048
    <Mu_y> = 1.048
    <H_c> = 950000
    <H_cAngle> = 0
    <J_re> = 0
    <J_im> = 0
    <Sigma> = 0.66700000000000004
    <d_lam> = 0
    <Phi_h> = 0
    <Phi_hx> = 0
    <Phi_hy> = 0
    <LamType> = 0
    <LamFill> = 1
    <NStrands> = 0
    <WireD> = 0
    <BHPoints> = 0
  <EndBlock>
  <BeginBlock>
    <BlockName> = "Bonded-Magnet"
    <Mu_x> = 1
    <Mu_y> = 1
    <H_c> = 0
    <H_cAngle> = 0
    <J_re> = 0
    <J_im> = 0
    <Sigma> = 0
    <d_lam> = 0
    <Phi_h> = 0
    <Phi_hx> = 0
    <Phi_hy> = 0
    <LamType> = 0
    <LamFill> = 1
    <NStrands> = 0
    <WireD> = 0
    <BHPoints> = 0
  <EndBlock>
  <BeginBlock>
    <BlockName> = "S18-Corea"
    <Mu_x> = 1
    <Mu_y> = 1
    <H_c> = 0
    <H_cAngle> = 0
    <J_re> = 0
    <J_im> = 0
    <Sigma> = 0
    <d_lam> = 0.47999999999999998
    <Phi_h> = 0
    <Phi_hx> = 0
    <Phi_hy> = 0
    <LamType> = 0
    <LamFill> = 0.97999999999999998
    <NStrands> = 0
    <WireD> = 0
    <BHPoints> = 27
      0	0
      0.10000000000000001	35
      0.20000000000000001	46.299999999999997
      0.29999999999999999	53.799999999999997
      0.40000000000000002	61.299999999999997
      0.5	68.799999999999997
      0.59999999999999998	76.299999999999997
      0.69999999999999996	83.799999999999997
      0.80000000000000004	92.5
      0.90000000000000002	103
      1	115
      1.1000000000000001	135
      1.2	166
      1.3	231
      1.3999999999999999	431
      1.5	1330
      1.6000000000000001	3120
      1.7	5790
      1.8	12400
      1.8500000000000001	17200
      1.9099999999999999	23200
      1.98	33200
      2.0499999999999998	48700
      2.1200000000000001	68700
      2.1899999999999999	103700
      2.2599999999999998	153700
      2.3900000000000001	253700
  <EndBlock>
  <BeginBlock>
    <BlockName> = "Transil270-35"
    <Mu_x> = 1
    <Mu_y> = 1
    <H_c> = 0
    <H_cAngle> = 0
    <J_re> = 0
    <J_im> = 0
    <Sigma> = 0
    <d_lam> = 0.47999999999999998
    <Phi_h> = 0
    <Phi_hx> = 0
    <Phi_hy> = 0
    <LamType> = 0
    <LamFill> = 0.97999999999999998
    <NStrands> = 0
    <WireD> = 0
    <BHPoints> = 31
      0	0
      0.20000000000000001	21.522575929999999
      0.40000000000000002	44.711908919999999
      0.59999999999999998	72.475883120000006
      0.80000000000000004	109.3673675
      1	166.16724769999999
      1.2	276.87752599999999
      1.3999999999999999	624.97564209999996
      1.51	1388.875241
      1.55	2096.3999410000001
      1.5900000000000001	3194.4272209999999
      1.6299999999999999	4665.6878649999999
      1.6699999999999999	6402.937938
      1.71	8356.0562150000005
      1.75	10542.94765
      1.79	12986.16259
      1.8300000000000001	15780.726769999999
      1.8700000000000001	19014.71773
      1.9099999999999999	22844.574949999998
      1.95	27508.583279999999
      1.99	33290.177620000002
      2.0299999999999998	40600.928720000004
      2.0699999999999998	49960.857839999997
      2.1099999999999999	61934.971960000003
      2.1499999999999999	79984.428880000007
      2.1899999999999999	104820.1562
      2.2250000000000001	135667.11489999999
      2.2650000000000001	167371.28640000001
      2.2999999999999998	195112.43700000001
      2.3530000000000002	237120.4645
      2.4060000000000001	279128.4927
  <EndBlock>
  <BeginBlock>
    <BlockName> = "M-27 Mod-7p5"
    <Mu_x> = 1
    <Mu_y> = 1
    <H_c> = 0
    <H_cAngle> = 0
    <J_re> = 0
    <J_im> = 0
    <Sigma> = 0
    <d_lam> = 0.63500000000000001
    <Phi_h> = 0
    <Phi_hx> = 0
    <Phi_hy> = 0
    <LamType> = 0
    <LamFill> = 0.97999999999999998
    <NStrands> = 0
    <WireD> = 0
    <BHPoints> = 47
      0	0
      0.046199999999999998	17.059828
      0.092499999999999999	25.634971
      0.13880000000000001	31.338353999999999
      0.185	35.778996999999997
      0.23130000000000001	39.602124000000003
      0.27750000000000002	43.123142999999999
      0.32369999999999999	46.520439000000003
      0.37	49.908177000000002
      0.4163	53.368284000000003
      0.46250000000000002	56.966318000000001
      0.50870000000000004	60.760271000000003
      0.55500000000000005	64.806105000000002
      0.60119999999999996	69.161803000000006
      0.64749999999999996	73.890922000000003
      0.69379999999999997	79.066315000000003
      0.73999999999999999	84.774675999999999
      0.7863	91.122721999999996
      0.83250000000000002	98.246298999999993
      0.87880000000000003	106.324591
      0.92500000000000004	115.60341699999999
      0.97119999999999995	126.435124
      1.0175000000000001	139.34975900000001
      1.0638000000000001	155.187082
      1.1100000000000001	175.350538
      1.1563000000000001	202.312017
      1.2024999999999999	240.640455
      1.2487999999999999	299.11802699999998
      1.2949999999999999	394.99338599999999
      1.3412999999999999	561.72617700000001
      1.3875	859.32876299999998
      1.4338	1375.4668879999999
      1.48	2191.2469139999998
      1.5263	3328.145908
      1.5725	4760.5061720000003
      1.6188	6535.3394490000001
      1.665	8788.9706569999998
      1.7113	11670.804346999999
      1.7575000000000001	15385.186211
      1.8037000000000001	20246.553030999999
      1.8500000000000001	26995.131141000002
      1.8963000000000001	38724.496369
      1.9424999999999999	64917.284463000004
      1.9887999999999999	101489.30933800001
      2.0350000000000001	137202.82896099999
      2.0813000000000001	176835.706764
      2.1274999999999999	216374.28360900001
  <EndBlock>
  <BeginBlock>
    <BlockName> = "vacodur-opt-mag"
    <Mu_x> = 1
    <Mu_y> = 1
    <H_c> = 0
    <H_cAngle> = 0
    <J_re> = 0
    <J_im> = 0
    <Sigma> = 0
    <d_lam> = 0.14999999999999999
    <Phi_h> = 0
    <Phi_hx> = 0
    <Phi_hy> = 0
    <LamType> = 0
    <LamFill> = 0.97999999999999998
    <NStrands> = 0
    <WireD> = 0
    <BHPoints> = 60
      0	0
      0.0079889999999999996	3.9942000000000002
      0.010985999999999999	5.2861000000000002
      0.012984000000000001	6.0814000000000004
      0.015980999999999999	6.9947999999999997
      0.019979	8.0472000000000001
      0.024975000000000001	9.2545999999999999
      0.029971999999999999	10.6457
      0.037967000000000001	12.2441
      0.047962999999999999	14.082700000000001
      0.060956999999999997	16.196899999999999
      0.077950000000000005	18.628599999999999
      0.10194300000000001	21.4252
      0.139935	24.6404
      0.19792499999999999	28.3386
      0.30191299999999999	32.590600000000002
      0.49990000000000001	37.4816
      0.90088500000000005	43.110199999999999
      1.3638680000000001	49.566899999999997
      1.545849	57.007899999999999
      1.6468259999999999	65.564300000000003
      1.7178	75.406800000000004
      1.79277	86.706000000000003
      1.8237350000000001	99.711299999999994
      1.8636950000000001	114.6588
      1.9016500000000001	131.8766
      1.9365969999999999	151.65350000000001
      1.9675370000000001	174.40940000000001
      1.9954670000000001	200.55119999999999
      2.0213869999999998	230.6431
      2.0472950000000001	265.2362
      2.0711889999999999	305.02620000000002
      2.0950679999999999	350.78739999999999
      2.1129280000000001	403.399
      2.1347670000000001	463.91070000000002
      2.1535820000000001	533.46460000000002
      2.178223	668.76639999999998
      2.1929560000000001	769.29139999999995
      2.2066490000000001	884.77700000000004
      2.218296	1017.5853
      2.2288899999999998	1170.2101
      2.2384240000000002	1345.8006
      2.2468880000000002	1547.5065999999999
      2.2532709999999998	1779.5274999999999
      2.259563	2046.0631000000001
      2.2667489999999999	2352.3622999999998
      2.2698140000000002	2704.1995999999999
      2.2757399999999999	3108.3987999999999
      2.2795070000000002	3572.1785
      2.283093	4104.4620999999997
      2.2834699999999999	4715.223
      2.2866149999999998	5413.3859000000002
      2.2894839999999999	6215.2233999999999
      2.2910529999999998	7129.9210999999996
      2.2932809999999999	8173.2289000000001
      2.2971180000000002	9363.5172000000002
      2.2985359999999999	10711.285900000001
      2.3014770000000002	12238.845300000001
      2.3038940000000001	13963.2547
      2.3058689999999999	15854.331200000001
  <EndBlock>
  <BeginBlock>
    <BlockName> = "vacodur-opt-mec"
    <Mu_x> = 1
    <Mu_y> = 1
    <H_c> = 0
    <H_cAngle> = 0
    <J_re> = 0
    <J_im> = 0
    <Sigma> = 0
    <d_lam> = 0.14999999999999999
    <Phi_h> = 0
    <Phi_hx> = 0
    <Phi_hy> = 0
    <LamType> = 0
    <LamFill> = 0.97999999999999998
    <NStrands> = 0
    <WireD> = 0
    <BHPoints> = 60
      0	0
      0.0089878079999999999	4.5879000000000003
      0.011983864	6.0721999999999996
      0.013981436999999999	6.9855999999999998
      0.014978646999999999	8.0353999999999992
      0.018975434999999999	9.2440999999999995
      0.020971745	10.6325
      0.023967500999999999	12.229699999999999
      0.027962619000000001	14.0669
      0.032957003999999998	16.1798
      0.038950549000000001	18.608899999999998
      0.044943124000000001	21.402899999999999
      0.053934586999999999	24.615500000000001
      0.062924767000000006	28.311
      0.074913474999999993	32.560400000000001
      0.089900490999999999	37.446199999999997
      0.107885544	43.070900000000002
      0.130868386	49.5276
      0.16284864800000001	56.955399999999997
      0.21182591000000001	65.511799999999994
      0.29479982500000002	75.328100000000006
      0.46976979800000002	86.627300000000005
      0.75873523799999998	99.632599999999996
      1.2076955519999999	114.5669
      1.491649867	131.7585
      1.635597347	151.5223
      1.7315369460000001	174.25200000000001
      1.803467478	200.3937
      1.860387617	230.4462
      1.908295759	265.01310000000001
      1.947190126	304.7638
      1.984068661	350.47239999999999
      2.012928922	403.05770000000001
      2.0427682589999998	463.517
      2.0675834279999998	533.07079999999996
      2.0973138530000002	634.5145
      2.1180603210000002	729.92129999999997
      2.1377691250000002	839.50139999999999
      2.1564339879999999	965.61689999999999
      2.1720489820000002	1110.4987000000001
      2.1876057360000001	1277.2965999999999
      2.2010969280000001	1468.7664
      2.213511746	1688.9764
      2.2248397290000002	1941.8634999999999
      2.235067275	2232.5459000000001
      2.2431800860000002	2566.4043000000001
      2.252161423	2949.7375000000002
      2.2569928030000002	3389.5012000000002
      2.2656494650000001	3895.0133000000001
      2.2701080450000002	4475.0655999999999
      2.27533297	5143.0445
      2.2783172660000002	5901.5749999999998
      2.2830086220000001	6770.3414000000002
      2.2873756539999999	7761.1547
      2.2883869720000001	8885.8266000000003
      2.2919798020000002	10167.9797
      2.2951402019999998	11612.8609
      2.2958088829999999	13242.781199999999
      2.2969614250000001	15066.929700000001
      2.2977748400000002	15889.7641
  <EndBlock>
  <BeginBlock>
    <BlockName> = "M530-65A-OK"
    <Mu_x> = 1
    <Mu_y> = 1
    <H_c> = 0
    <H_cAngle> = 0
    <J_re> = 0
    <J_im> = 0
    <Sigma> = 0
    <d_lam> = 0
    <Phi_h> = 0
    <Phi_hx> = 0
    <Phi_hy> = 0
    <LamType> = 0
    <LamFill> = 1
    <NStrands> = 0
    <WireD> = 0
    <BHPoints> = 199
      0	0
      0.018848	12.326973000000001
      0.038573999999999997	22.163343000000001
      0.059312999999999998	30.264441000000001
      0.081240999999999994	37.121026999999998
      0.104587	43.070056000000001
      0.12967000000000001	48.356479
      0.156946	53.171472999999999
      0.187116	57.680774999999997
      0.221361	62.054786999999997
      0.26198100000000002	66.524258000000003
      0.314919	71.574237999999994
      0.442722	82.040378000000004
      0.57165600000000005	92.228953000000004
      0.62506200000000001	96.637904000000006
      0.66604200000000002	100.157055
      0.70059000000000005	103.243889
      0.73102699999999998	106.07473
      0.75854500000000002	108.74006199999999
      0.78385000000000005	111.294023
      0.80740299999999998	113.77241100000001
      0.82952400000000004	116.200692
      0.85044799999999998	118.598054
      0.87034800000000001	120.97966099999999
      0.88936300000000001	123.358001
      0.90760099999999999	125.743736
      0.925149	128.146277
      0.94208199999999997	130.574173
      0.95845899999999995	133.03539799999999
      0.97433099999999995	135.53756799999999
      0.98974300000000004	138.088109
      1.0047330000000001	140.69439700000001
      1.019333	143.36387099999999
      1.0335719999999999	146.10414599999999
      1.047477	148.923102
      1.0610679999999999	151.82898499999999
      1.074368	154.830499
      1.0873930000000001	157.93690100000001
      1.10016	161.158107
      1.1126830000000001	164.50479999999999
      1.1249769999999999	167.98855499999999
      1.137054	171.62196900000001
      1.1489229999999999	175.41881900000001
      1.1605970000000001	179.394229
      1.1720839999999999	183.56486799999999
      1.183392	187.94917699999999
      1.194531	192.56763000000001
      1.2055070000000001	197.44303199999999
      1.2163269999999999	202.600876
      1.226998	208.069751
      1.237525	213.881823
      1.2479150000000001	220.073407
      1.258173	226.685632
      1.268303	233.76522800000001
      1.278311	241.36546999999999
      1.2882	249.547281
      1.297974	258.38055000000003
      1.307639	267.945695
      1.317196	278.33551
      1.3266500000000001	289.657352
      1.336004	302.03570000000002
      1.345261	315.615139
      1.3544240000000001	330.56378699999999
      1.363496	347.07715100000001
      1.372479	365.38233400000001
      1.3813770000000001	385.74240600000002
      1.390191	408.46058799999997
      1.3989229999999999	433.88362499999999
      1.4075770000000001	462.40341799999999
      1.416153	494.45556900000003
      1.424655	530.51313400000004
      1.433084	571.07376399999998
      1.4414419999999999	616.63877300000001
      1.44973	667.683943
      1.457951	724.6241
      1.466105	787.77634999999998
      1.4741949999999999	857.32916
      1.4822219999999999	933.32478600000002
      1.4901880000000001	1015.660001
      1.498094	1104.1052070000001
      1.5059400000000001	1198.337168
      1.51373	1297.9777180000001
      1.521463	1402.631005
      1.5291399999999999	1511.9141030000001
      1.5367649999999999	1625.4788289999999
      1.5443359999999999	1743.0249819999999
      1.5518559999999999	1864.306583
      1.5593250000000001	1989.1331339999999
      1.5667439999999999	2117.3677389999998
      1.5741149999999999	2248.9235370000001
      1.5814379999999999	2383.7594840000002
      1.588714	2521.8761
      1.595944	2663.3115870000001
      1.603129	2808.1384779999998
      1.6102700000000001	2956.460916
      1.6173679999999999	3108.4125450000001
      1.624423	3264.1550130000001
      1.6314360000000001	3423.8770279999999
      1.6384080000000001	3587.7939299999998
      1.64534	3756.1477399999999
      1.6522319999999999	3929.2076630000001
      1.659084	4107.2710040000002
      1.665899	4290.6645090000002
      1.6726749999999999	4479.7461000000003
      1.6794150000000001	4674.9070380000003
      1.686118	4876.5745010000001
      1.692785	5085.214626
      1.699417	5301.3360259999999
      1.7060139999999999	5525.493837
      1.7125760000000001	5758.2943370000003
      1.7191050000000001	6000.4002049999999
      1.7256009999999999	6252.5364829999999
      1.732064	6515.4973220000002
      1.738494	6790.15362
      1.744893	7077.4616260000003
      1.751261	7378.4726540000001
      1.757598	7694.3440220000002
      1.7639039999999999	8026.3513469999998
      1.7701800000000001	8375.9023460000008
      1.776427	8744.552291
      1.782645	9134.0212510000001
      1.788834	9546.2132579999998
      1.7949949999999999	9983.2374779999991
      1.8011280000000001	10447.43145
      1.8072330000000001	10941.38629
      1.8133109999999999	11467.973819999999
      1.8193619999999999	12030.37499
      1.8253870000000001	12632.10929
      1.831385	13277.063829999999
      1.837358	13969.52079
      1.843305	14714.181049999999
      1.8492280000000001	15516.181070000001
      1.8551249999999999	16381.09935
      1.8609979999999999	17314.947639999999
      1.866846	18324.141339999998
      1.872671	19415.442930000001
      1.8784719999999999	20595.871869999999
      1.88425	21872.575840000001
      1.890004	23252.659780000002
      1.8957360000000001	24742.973529999999
      1.9014450000000001	26349.86418
      1.907133	28078.906019999999
      1.912798	29934.628089999998
      1.9184410000000001	31920.26454
      1.9240630000000001	34037.555240000002
      1.9296629999999999	36286.621249999997
      1.935243	38665.931929999999
      1.9408019999999999	41172.369030000002
      1.94634	43801.379809999999
      1.9518580000000001	46547.200389999998
      1.957355	49403.123290000003
      1.962833	52361.781179999998
      1.9682919999999999	55415.421999999999
      1.97373	58556.156179999998
      1.97915	61776.164400000001
      1.98455	65067.860919999999
      1.989932	68424.013019999999
      1.995295	71837.820730000007
      2.0006390000000001	75302.963180000006
      2.0059659999999999	78813.618239999996
      2.0112739999999998	82364.46213
      2.0165639999999998	85950.654729999995
      2.021836	89567.815289999999
      2.027091	93211.992480000001
      2.0323289999999998	96879.631450000001
      2.0375489999999998	100567.53999999999
      2.0427529999999998	104272.8551
      2.047939	107993.01149999999
      2.0531090000000001	111725.7111
      2.058262	115468.8958
      2.063399	119220.7224
      2.0685199999999999	122979.53909999999
      2.0736240000000001	126743.8655
      2.078713	130512.374
      2.0837859999999999	134283.8731
      2.0888429999999998	138057.29300000001
      2.0938850000000002	141831.67240000001
      2.0989110000000002	145606.147
      2.1039219999999998	149379.93890000001
      2.1089190000000002	153152.34830000001
      2.1139000000000001	156922.74419999999
      2.1188660000000001	160690.55840000001
      2.123818	164455.2782
      2.128755	168216.44140000001
      2.1336780000000002	171973.63080000001
      2.1385860000000001	175726.46979999999
      2.1434799999999998	179474.6188
      2.148361	183217.77100000001
      2.1532269999999998	186955.64970000001
      2.1580789999999999	190688.00520000001
      2.1629179999999999	194414.61249999999
      2.1677430000000002	198135.26860000001
      2.172555	201849.79079999999
      2.1773539999999998	205558.0148
      2.1821389999999998	209259.79310000001
      2.1869109999999998	212954.99309999999
      2.1916699999999998	216643.4963
      2.1964160000000001	220325.1967
      2.201149	224000
  <EndBlock>
  <BeginBlock>
    <BlockName> = "10JNEX900"
    <Mu_x> = 1
    <Mu_y> = 1
    <H_c> = 0
    <H_cAngle> = 0
    <J_re> = 0
    <J_im> = 0
    <Sigma> = 0
    <d_lam> = 0.10000000000000001
    <Phi_h> = 0
    <Phi_hx> = 0
    <Phi_hy> = 0
    <LamType> = 0
    <LamFill> = 0.97999999999999998
    <NStrands> = 0
    <WireD> = 0
    <BHPoints> = 49
      0	0
      0.0070000000000000001	3.7446799999999998
      0.0080000000000000002	3.744685
      0.0089999999999999993	4.1191500000000003
      0.0099000000000000008	4.4936199999999999
      0.0101	4.4936249999999998
      0.0135	4.4936259999999999
      0.014999999999999999	5.2425499999999996
      0.019800000000000002	5.9914899999999998
      0.029999999999999999	7.4893599999999996
      0.039899999999999998	8.2383000000000006
      0.049799999999999997	9.7361699999999995
      0.050299999999999997	10.485099999999999
      0.059900000000000002	11.234
      0.069900000000000004	11.983000000000001
      0.079899999999999999	13.4809
      0.089499999999999996	13.48095
      0.099500000000000005	14.9787
      0.10050000000000001	14.97875
      0.14960000000000001	17.974499999999999
      0.1996	21.719100000000001
      0.2016	23.216999999999999
      0.29849999999999999	29.208500000000001
      0.40000000000000002	33.702100000000002
      0.49659999999999999	36.697899999999997
      0.50490000000000002	37.446800000000003
      0.59770000000000001	39.693600000000004
      0.69789999999999996	44.936199999999999
      0.79900000000000004	49.4298
      0.90139999999999998	55.421300000000002
      0.99280000000000002	67.404300000000006
      1.0099	71.897900000000007
      1.0605	91.370199999999997
      1.0708	102.98
      1.0956999999999999	117.95999999999999
      1.1514	202.21000000000001
      1.196	378.20999999999998
      1.2517	816.34000000000003
      1.2910999999999999	1217
      1.3546	1984.7
      1.3906000000000001	2434
      1.4505999999999999	3295.3000000000002
      1.4508000000000001	3300
      1.6151	9645.2000000000007
      1.6773	15990.299999999999
      1.7111000000000001	22335.5
      1.7338	28680.599999999999
      1.7514000000000001	35025.800000000003
      1.9950000000000001	200000
  <EndBlock>
  <BeginBlock>
    <BlockName> = "Vacodur-Splus-opt-mec"
    <Mu_x> = 1
    <Mu_y> = 1
    <H_c> = 0
    <H_cAngle> = 0
    <J_re> = 0
    <J_im> = 0
    <Sigma> = 0
    <d_lam> = 0.34999999999999998
    <Phi_h> = 0
    <Phi_hx> = 0
    <Phi_hy> = 0
    <LamType> = 0
    <LamFill> = 0.97999999999999998
    <NStrands> = 0
    <WireD> = 0
    <BHPoints> = 51
      0	0
      0.01	19.280000000000001
      0.012	22.170000000000002
      0.014	25.5
      0.016	29.32
      0.017999999999999999	33.719999999999999
      0.021000000000000001	38.789999999999999
      0.024	44.609999999999999
      0.028000000000000001	51.299999999999997
      0.032000000000000001	59
      0.036999999999999998	67.840000000000003
      0.042999999999999997	78.010000000000005
      0.050000000000000003	89.719999999999999
      0.058000000000000003	103.17
      0.067000000000000004	118.64
      0.078	136.44
      0.090999999999999998	156.91
      0.106	180.44999999999999
      0.122	207.52000000000001
      0.14399999999999999	238.63999999999999
      0.17100000000000001	274.44
      0.20399999999999999	315.58999999999997
      0.248	362.93000000000001
      0.308	417.39999999999998
      0.39000000000000001	480
      0.443	512.79999999999995
      0.59599999999999997	589.79999999999995
      0.79700000000000004	678.39999999999998
      1.0189999999999999	780.20000000000005
      1.2310000000000001	897.39999999999998
      1.4099999999999999	1032.2
      1.5529999999999999	1186.7
      1.6619999999999999	1364.0999999999999
      1.7450000000000001	1568.0999999999999
      1.8109999999999999	1802.5999999999999
      1.865	2073
      1.9119999999999999	2383.0999999999999
      1.9490000000000001	2738.5
      1.9810000000000001	3147.9000000000001
      2.0089999999999999	3617.0999999999999
      2.036	4157.5
      2.0590000000000002	4776.3999999999996
      2.0779999999999998	5488.6000000000004
      2.0960000000000001	6303.5
      2.1120000000000001	7230.6999999999998
      2.125	8287.7999999999993
      2.137	9489
      2.1459999999999999	10843.700000000001
      2.157	12379.1
      2.165	14098.799999999999
      2.1709999999999998	15817.299999999999
  <EndBlock>
  <BeginBlock>
    <BlockName> = "M250-35A"
    <Mu_x> = 1
    <Mu_y> = 1
    <H_c> = 0
    <H_cAngle> = 0
    <J_re> = 0
    <J_im> = 0
    <Sigma> = 0
    <d_lam> = 0.34999999999999998
    <Phi_h> = 0
    <Phi_hx> = 0
    <Phi_hy> = 0
    <LamType> = 0
    <LamFill> = 1
    <NStrands> = 0
    <WireD> = 0
    <BHPoints> = 200
      0	0
      0.0042969999999999996	2.893046
      0.0085299999999999994	5.3886940000000001
      0.012479000000000001	7.4534830000000003
      0.016226999999999998	9.215719
      0.019806000000000001	10.744738999999999
      0.023247	12.092207999999999
      0.026575999999999999	13.294746
      0.02981	14.379244
      0.032964	15.365919999999999
      0.036049999999999999	16.270323000000001
      0.039079000000000003	17.104651
      0.042056999999999997	17.878640000000001
      0.044991000000000003	18.600180000000002
      0.047888	19.275749999999999
      0.050750999999999998	19.910734999999999
      0.053586000000000002	20.50966
      0.056395000000000001	21.076357999999999