[Format]      =  4.0
[Frequency]   =  0
[Precision]   =  1e-008
[MinAngle]    =  15
[Depth]       =  101
[LengthUnits] =  millimeters
[ProblemType] =  planar
[Coordinates] =  cartesian
[ACSolver]    =  0
[Comment]     =  "Add comments here."
[PointProps]   = 0
[BdryProps]   = 9
  <BeginBdry>
    <BdryName> = "A=0"
    <BdryType> = 0
    <A_0> = 0
    <A_1> = 0
    <A_2> = 0
    <Phi> = 0
    <c0> = 0
    <c0i> = 0
    <c1> = 0
    <c1i> = 0
    <Mu_ssd> = 0
    <Sigma_ssd> = 0
  <EndBdry>
  <BeginBdry>
    <BdryName> = "APr1"
    <BdryType> = 5
    <A_0> = 0
    <A_1> = 0
    <A_2> = 0
    <Phi> = 0
    <c0> = 0
    <c0i> = 0
    <c1> = 0
    <c1i> = 0
    <Mu_ssd> = 0
    <Sigma_ssd> = 0
  <EndBdry>
  <BeginBdry>
    <BdryName> = "APr2"
    <BdryType> = 5
    <A_0> = 0
    <A_1> = 0
    <A_2> = 0
    <Phi> = 0
    <c0> = 0
    <c0i> = 0
    <c1> = 0
    <c1i> = 0
    <Mu_ssd> = 0
    <Sigma_ssd> = 0
  <EndBdry>
  <BeginBdry>
    <BdryName> = "APg1"
    <BdryType> = 5
    <A_0> = 0
    <A_1> = 0
    <A_2> = 0
    <Phi> = 0
    <c0> = 0
    <c0i> = 0
    <c1> = 0
    <c1i> = 0
    <Mu_ssd> = 0
    <Sigma_ssd> = 0
  <EndBdry>
  <BeginBdry>
    <BdryName> = "APg2"
    <BdryType> = 5
    <A_0> = 0
    <A_1> = 0
    <A_2> = 0
    <Phi> = 0
    <c0> = 0
    <c0i> = 0
    <c1> = 0
    <c1i> = 0
    <Mu_ssd> = 0
    <Sigma_ssd> = 0
  <EndBdry>
  <BeginBdry>
    <BdryName> = "APg3"
    <BdryType> = 5
    <A_0> = 0
    <A_1> = 0
    <A_2> = 0
    <Phi> = 0
    <c0> = 0
    <c0i> = 0
    <c1> = 0
    <c1i> = 0
    <Mu_ssd> = 0
    <Sigma_ssd> = 0
  <EndBdry>
  <BeginBdry>
    <BdryName> = "APmove"
    <BdryType> = 5
    <A_0> = 0
    <A_1> = 0
    <A_2> = 0
    <Phi> = 0
    <c0> = 0
    <c0i> = 0
    <c1> = 0
    <c1i> = 0
    <Mu_ssd> = 0
    <Sigma_ssd> = 0
  <EndBdry>
  <BeginBdry>
    <BdryName> = "APs1"
    <BdryType> = 5
    <A_0> = 0
    <A_1> = 0
    <A_2> = 0
    <Phi> = 0
    <c0> = 0
    <c0i> = 0
    <c1> = 0
    <c1i> = 0
    <Mu_ssd> = 0
    <Sigma_ssd> = 0
  <EndBdry>
  <BeginBdry>
    <BdryName> = "APs2"
    <BdryType> = 5
    <A_0> = 0
    <A_1> = 0
    <A_2> = 0
    <Phi> = 0
    <c0> = 0
    <c0i> = 0
    <c1> = 0
    <c1i> = 0
    <Mu_ssd> = 0
    <Sigma_ssd> = 0
  <EndBdry>
[BlockProps]  = 10
  <BeginBlock>
    <BlockName> = "M530-65A-OK"
    <Mu_x> = 1
    <Mu_y> = 1
    <H_c> = 0
    <H_cAngle> = 0
    <J_re> = 0
    <J_im> = 0
    <Sigma> = 0
    <d_lam> = 0
    <Phi_h> = 0
    <Phi_hx> = 0
    <Phi_hy> = 0
    <LamType> = 0
    <LamFill> = 1
    <NStrands> = 0
    <WireD> = 0
    <BHPoints> = 199
      0	0
      0.018848	12.326973000000001
      0.038573999999999997	22.163343000000001
      0.059312999999999998	30.264441000000001
      0.081240999999999994	37.121026999999998
      0.104587	43.070056000000001
      0.12967000000000001	48.356479
      0.156946	53.171472999999999
      0.187116	57.680774999999997
      0.221361	62.054786999999997
      0.26198100000000002	66.524258000000003
      0.314919	71.574237999999994
      0.442722	82.040378000000004
      0.57165600000000005	92.228953000000004
      0.62506200000000001	96.637904000000006
      0.66604200000000002	100.157055
      0.70059000000000005	103.243889
      0.73102699999999998	106.07473
      0.75854500000000002	108.74006199999999
      0.78385000000000005	111.294023
      0.80740299999999998	113.77241100000001
      0.82952400000000004	116.200692
      0.85044799999999998	118.598054
      0.87034800000000001	120.97966099999999
      0.88936300000000001	123.358001
      0.90760099999999999	125.743736
      0.925149	128.146277
      0.94208199999999997	130.574173
      0.95845899999999995	133.03539799999999
      0.97433099999999995	135.53756799999999
      0.98974300000000004	138.088109
      1.0047330000000001	140.69439700000001
      1.019333	143.36387099999999
      1.0335719999999999	146.10414599999999
      1.047477	148.923102
      1.0610679999999999	151.82898499999999
      1.074368	154.830499
      1.0873930000000001	157.93690100000001
      1.10016	161.158107
      1.1126830000000001	164.50479999999999
      1.1249769999999999	167.98855499999999
      1.137054	171.62196900000001
      1.1489229999999999	175.41881900000001
      1.1605970000000001	179.394229
      1.1720839999999999	183.56486799999999
      1.183392	187.94917699999999
      1.194531	192.56763000000001
      1.2055070000000001	197.44303199999999
      1.2163269999999999	202.600876
      1.226998	208.069751
      1.237525	213.881823
      1.2479150000000001	220.073407
      1.258173	226.685632
      1.268303	233.76522800000001
      1.278311	241.36546999999999
      1.2882	249.547281
      1.297974	258.38055000000003
      1.307639	267.945695
      1.317196	278.33551
      1.3266500000000001	289.657352
      1.336004	302.03570000000002
      1.345261	315.615139
      1.3544240000000001	330.56378699999999
      1.363496	347.07715100000001
      1.372479	365.38233400000001
      1.3813770000000001	385.74240600000002
      1.390191	408.46058799999997
      1.3989229999999999	433.88362499999999
      1.4075770000000001	462.40341799999999
      1.416153	494.45556900000003
      1.424655	530.51313400000004
      1.433084	571.07376399999998
      1.4414419999999999	616.63877300000001
      1.44973	667.683943
      1.457951	724.6241
      1.466105	787.77634999999998
      1.4741949999999999	857.32916
      1.4822219999999999	933.32478600000002
      1.4901880000000001	1015.660001
      1.498094	1104.1052070000001
      1.5059400000000001	1198.337168
      1.51373	1297.9777180000001
      1.521463	1402.631005
      1.5291399999999999	1511.9141030000001
      1.5367649999999999	1625.4788289999999
      1.5443359999999999	1743.0249819999999
      1.5518559999999999	1864.306583
      1.5593250000000001	1989.1331339999999
      1.5667439999999999	2117.3677389999998
      1.5741149999999999	2248.9235370000001
      1.5814379999999999	2383.7594840000002
      1.588714	2521.8761
      1.595944	2663.3115870000001
      1.603129	2808.1384779999998
      1.6102700000000001	2956.460916
      1.6173679999999999	3108.4125450000001
      1.624423	3264.1550130000001
      1.6314360000000001	3423.8770279999999
      1.6384080000000001	3587.7939299999998
      1.64534	3756.1477399999999
      1.6522319999999999	3929.2076630000001
      1.659084	4107.2710040000002
      1.665899	4290.6645090000002
      1.6726749999999999	4479.7461000000003
      1.6794150000000001	4674.9070380000003
      1.686118	4876.5745010000001
      1.692785	5085.214626
      1.699417	5301.3360259999999
      1.7060139999999999	5525.493837
      1.7125760000000001	5758.2943370000003
      1.7191050000000001	6000.4002049999999
      1.7256009999999999	6252.5364829999999
      1.732064	6515.4973220000002
      1.738494	6790.15362
      1.744893	7077.4616260000003
      1.751261	7378.4726540000001
      1.757598	7694.3440220000002
      1.7639039999999999	8026.3513469999998
      1.7701800000000001	8375.9023460000008
      1.776427	8744.552291
      1.782645	9134.0212510000001
      1.788834	9546.2132579999998
      1.7949949999999999	9983.2374779999991
      1.8011280000000001	10447.43145
      1.8072330000000001	10941.38629
      1.8133109999999999	11467.973819999999
      1.8193619999999999	12030.37499
      1.8253870000000001	12632.10929
      1.831385	13277.063829999999
      1.837358	13969.52079
      1.843305	14714.181049999999
      1.8492280000000001	15516.181070000001
      1.8551249999999999	16381.09935
      1.8609979999999999	17314.947639999999
      1.866846	18324.141339999998
      1.872671	19415.442930000001
      1.8784719999999999	20595.871869999999
      1.88425	21872.575840000001
      1.890004	23252.659780000002
      1.8957360000000001	24742.973529999999
      1.9014450000000001	26349.86418
      1.907133	28078.906019999999
      1.912798	29934.628089999998
      1.9184410000000001	31920.26454
      1.9240630000000001	34037.555240000002
      1.9296629999999999	36286.621249999997
      1.935243	38665.931929999999
      1.9408019999999999	41172.369030000002
      1.94634	43801.379809999999
      1.9518580000000001	46547.200389999998
      1.957355	49403.123290000003
      1.962833	52361.781179999998
      1.9682919999999999	55415.421999999999
      1.97373	58556.156179999998
      1.97915	61776.164400000001
      1.98455	65067.860919999999
      1.989932	68424.013019999999
      1.995295	71837.820730000007
      2.0006390000000001	75302.963180000006
      2.0059659999999999	78813.618239999996
      2.0112739999999998	82364.46213
      2.0165639999999998	85950.654729999995
      2.021836	89567.815289999999
      2.027091	93211.992480000001
      2.0323289999999998	96879.631450000001
      2.0375489999999998	100567.53999999999
      2.0427529999999998	104272.8551
      2.047939	107993.01149999999
      2.0531090000000001	111725.7111
      2.058262	115468.8958
      2.063399	119220.7224
      2.0685199999999999	122979.53909999999
      2.0736240000000001	126743.8655
      2.078713	130512.374
      2.0837859999999999	134283.8731
      2.0888429999999998	138057.29300000001
      2.0938850000000002	141831.67240000001
      2.0989110000000002	145606.147
      2.1039219999999998	149379.93890000001
      2.1089190000000002	153152.34830000001
      2.1139000000000001	156922.74419999999
      2.1188660000000001	160690.55840000001
      2.123818	164455.2782
      2.128755	168216.44140000001
      2.1336780000000002	171973.63080000001
      2.1385860000000001	175726.46979999999
      2.1434799999999998	179474.6188
      2.148361	183217.77100000001
      2.1532269999999998	186955.64970000001
      2.1580789999999999	190688.00520000001
      2.1629179999999999	194414.61249999999
      2.1677430000000002	198135.26860000001
      2.172555	201849.79079999999
      2.1773539999999998	205558.0148
      2.1821389999999998	209259.79310000001
      2.1869109999999998	212954.99309999999
      2.1916699999999998	216643.4963
      2.1964160000000001	220325.1967
      2.201149	224000
  <EndBlock>
  <BeginBlock>
    <BlockName> = "Copper"
    <Mu_x> = 1
    <Mu_y> = 1
    <H_c> = 0
    <H_cAngle> = 0
    <J_re> = 0
    <J_im> = 0
    <Sigma> = 58
    <d_lam> = 0
    <Phi_h> = 0
    <Phi_hx> = 0
    <Phi_hy> = 0
    <LamType> = 0
    <LamFill> = 1
    <NStrands> = 0
    <WireD> = 0
    <BHPoints> = 0
  <EndBlock>
  <BeginBlock>
    <BlockName> = "Bonded-Magnet"
    <Mu_x> = 1
    <Mu_y> = 1
    <H_c> = 0
    <H_cAngle> = 0
    <J_re> = 0
    <J_im> = 0
    <Sigma> = 0
    <d_lam> = 0
    <Phi_h> = 0
    <Phi_hx> = 0
    <Phi_hy> = 0
    <LamType> = 0
    <LamFill> = 1
    <NStrands> = 0
    <WireD> = 0
    <BHPoints> = 0
  <EndBlock>
  <BeginBlock>
    <BlockName> = "Air"
    <Mu_x> = 1
    <Mu_y> = 1
    <H_c> = 0
    <H_cAngle> = 0
    <J_re> = 0
    <J_im> = 0
    <Sigma> = 0
    <d_lam> = 0
    <Phi_h> = 0
    <Phi_hx> = 0
    <Phi_hy> = 0
    <LamType> = 0
    <LamFill> = 1
    <NStrands> = 0
    <WireD> = 0
    <BHPoints> = 0
  <EndBlock>
  <BeginBlock>
    <BlockName> = "Bonded-Magnet_1"
    <Mu_x> = 1
    <Mu_y> = 1
    <H_c> = 0
    <H_cAngle> = 0
    <J_re> = 0
    <J_im> = 0
    <Sigma> = 0
    <d_lam> = 0
    <Phi_h> = 0
    <Phi_hx> = 0
    <Phi_hy> = 0
    <LamType> = 0
    <LamFill> = 1
    <NStrands> = 0
    <WireD> = 0
    <BHPoints> = 0
  <EndBlock>
  <BeginBlock>
    <BlockName> = "Bonded-Magnet_2"
    <Mu_x> = 1
    <Mu_y> = 1
    <H_c> = 0
    <H_cAngle> = 0
    <J_re> = 0
    <J_im> = 0
    <Sigma> = 0
    <d_lam> = 0
    <Phi_h> = 0
    <Phi_hx> = 0
    <Phi_hy> = 0
    <LamType> = 0
    <LamFill> = 1
    <NStrands> = 0
    <WireD> = 0
    <BHPoints> = 0
  <EndBlock>
  <BeginBlock>
    <BlockName> = "Bonded-Magnet_3"
    <Mu_x> = 1
    <Mu_y> = 1
    <H_c> = 0
    <H_cAngle> = 0
    <J_re> = 0
    <J_im> = 0
    <Sigma> = 0
    <d_lam> = 0
    <Phi_h> = 0
    <Phi_hx> = 0
    <Phi_hy> = 0
    <LamType> = 0
    <LamFill> = 1
    <NStrands> = 0
    <WireD> = 0
    <BHPoints> = 0
  <EndBlock>
  <BeginBlock>
    <BlockName> = "Bonded-Magnet_4"
    <Mu_x> = 1
    <Mu_y> = 1
    <H_c> = 0
    <H_cAngle> = 0
    <J_re> = 0
    <J_im> = 0
    <Sigma> = 0
    <d_lam> = 0
    <Phi_h> = 0
    <Phi_hx> = 0
    <Phi_hy> = 0
    <LamType> = 0
    <LamFill> = 1
    <NStrands> = 0
    <WireD> = 0
    <BHPoints> = 0
  <EndBlock>
  <BeginBlock>
    <BlockName> = "Bonded-Magnet_5"
    <Mu_x> = 1
    <Mu_y> = 1
    <H_c> = 0
    <H_cAngle> = 0
    <J_re> = 0
    <J_im> = 0
    <Sigma> = 0
    <d_lam> = 0
    <Phi_h> = 0
    <Phi_hx> = 0
    <Phi_hy> = 0
    <LamType> = 0
    <LamFill> = 1
    <NStrands> = 0
    <WireD> = 0
    <BHPoints> = 0
  <EndBlock>
  <BeginBlock>
    <BlockName> = "Bonded-Magnet_6"
    <Mu_x> = 1
    <Mu_y> = 1
    <H_c> = 0
    <H_cAngle> = 0
    <J_re> = 0
    <J_im> = 0
    <Sigma> = 0
    <d_lam> = 0
    <Phi_h> = 0
    <Phi_hx> = 0
    <Phi_hy> = 0
    <LamType> = 0
    <LamFill> = 1
    <NStrands> = 0
    <WireD> = 0
    <BHPoints> = 0
  <EndBlock>
[CircuitProps]  = 6
  <BeginCircuit>
    <CircuitName> = "fase1"
    <TotalAmps_re> = 0
    <TotalAmps_im> = 0
    <CircuitType> = 1
  <EndCircuit>
  <BeginCircuit>
    <CircuitName> = "fase2"
    <TotalAmps_re> = 0
    <TotalAmps_im> = 0
    <CircuitType> = 1
  <EndCircuit>
  <BeginCircuit>
    <CircuitName> = "fase3"
    <TotalAmps_re> = 0
    <TotalAmps_im> = 0
    <CircuitType> = 1
  <EndCircuit>
  <BeginCircuit>
    <CircuitName> = "fase1n"
    <TotalAmps_re> = 0
    <TotalAmps_im> = 0
    <CircuitType> = 1
  <EndCircuit>
  <BeginCircuit>
    <CircuitName> = "fase2n"
    <TotalAmps_re> = 0
    <TotalAmps_im> = 0
    <CircuitType> = 1
  <EndCircuit>
  <BeginCircuit>
    <CircuitName> = "fase3n"
    <TotalAmps_re> = 0
    <TotalAmps_im> = 0
    <CircuitType> = 1
  <EndCircuit>
[NumPoints] = 151
26.580538212568758	26.580538212568754	0	2
23.384861946522832	23.384861946522829	0	2
19.209962243392273	35.187859420650234	0	2
17.290315288161658	33.638275769682416	0	2
23.138690352281397	31.222945023309315	0	2
21.730788985697359	21.730788985697355	0	2
18.535112719651426	18.535112719651423	0	2
11.78273025496901	38.319386317354279	0	2
9.6910097783469844	36.558543232827546	0	2
14.463906199407498	35.346223445655141	0	2
16.26302115705095	16.263021157050947	0	2
13.067344891005025	13.067344891005023	0	2
3.9730791967915309	39.892640194602599	0	2
1.8029241756116221	37.785523967235079	0	2
6.3605101491465508	37.478201495137412	0	2
33.638275769682423	17.290315288161658	0	2
35.187859420650241	19.209962243392269	0	2
31.222945023309318	23.138690352281387	0	2
36.558543232827546	9.6910097783469791	0	2
38.319386317354279	11.782730254969005	0	2
35.346223445655149	14.463906199407493	0	2
37.785523967235079	1.8029241756116186	0	2
39.892640194602599	3.9730791967915238	0	2
37.478201495137412	6.3605101491465437	0	2
40.490000000000002	0	0	2
7.1054273576010019e-015	40.490000000000002	0	2
16.77	0	0	2
3.5527136788005009e-015	16.77	0	2
0	0	0	2
40.416249773903381	-5.3209002258504023	0	1
40.743173908474049	-1.3337934112297045	0	1
40.765000000000001	0	0	1
41.493173908474049	-1.3337934112297045	0	1
41.755408380798677	-2.8209990066013941	0	1
56.344379934141891	-4.741673548830498	0	1
57.474006384857461	-3.7926394581824514	0	1
57.635000000000005	0	0	1
66.922528142732205	-8.8105179748534805	0	1
67.5	0	0	1
49.564086954237027	-3.8490310436517361	0	1
49.564086954237027	0	0	1
41.493173908474049	0	0	1
40.743173908474049	1.3337934112297045	0	1
40.416249773903381	5.3209002258504023	0	1
41.493173908474049	1.3337934112297045	0	1
41.755408380798677	2.8209990066013941	0	1
57.474006384857461	3.7926394581824514	0	1
56.344379934141891	4.741673548830498	0	1
66.922528142732205	8.8105179748534805	0	1
49.564086954237027	3.8490310436517361	0	1
39.700095060240507	9.256763862596225	0	1
39.375966308673867	10.550758373604259	0	1
40.424539429957314	9.4508781464231149	0	1
41.062755611384183	8.082219128572012	0	1
55.651727164727397	10.002893670801116	0	1
56.49723443042155	11.21195904828358	0	1
55.671134998170459	14.917035664483784	0	1
65.19999327451211	17.47028554442015	0	1
48.871434184822533	9.1102511656223548	0	1
47.875231645534633	12.828129656873934	0	1
40.079328292898808	10.739223649264082	0	1
39.009672786123495	11.833454868278158	0	1
37.6619491428226	15.600090120362884	0	1
39.734117155840302	12.027569152105048	0	1
39.60249907313672	13.531970721396197	0	1
54.534019784451708	18.538775853206396	0	1
53.197256324535012	19.16310355209535	0	1
62.361868444511856	25.831131684643559	0	1
46.879029106246733	16.546008148125512	0	1
35.951520341160702	19.216487976711793	0	1
35.303525585272645	20.382499999999997	0	1
36.601039393999031	19.591487976711793	0	1
37.571743906466011	18.434647386631863	0	1
51.166501157864303	24.065780217331017	0	1
51.670269315646813	25.452481074247473	0	1
49.91337414711613	28.817499999999999	0	1
58.45671475544961	33.749999999999993	0	1
44.848273939576018	21.448684813361176	0	1
42.92375841775015	24.78204347711851	0	1
35.934142688384178	20.746586954237021	0	1
34.617726929930996	21.526685931762248	0	1
32.341048916972198	24.816159653540492	0	1
35.267245982769325	21.901685931762248	0	1
34.750744899864614	23.320760994166807	0	1
47.877629857464363	32.021525310609981	0	1
46.424827609033812	32.278599716810866	0	1
53.551350469658381	41.091396458088639	0	1
40.999242895924283	28.115402140875844	0	1
29.752908923527276	27.866640191962347	0	1
28.825207935069614	28.825207935069606	0	1
30.283239009417187	28.396970277852258	0	1
31.520279944564706	27.530784889987981	0	1
43.194362653733897	36.48862361263204	0	1
43.322060736168126	37.958458577215147	0	1
40.754099333686675	40.754099333686668	0	1
47.72970773009196	47.729707730091953	0	1
37.768777940624375	32.325426036697017	0	1
35.0471019886607	35.047101988660692	0	1
29.340104643634724	29.340104643634721	0	1
27.86664019196235	29.752908923527272	0	1
24.816159653540499	32.341048916972198	0	1
28.396970277852262	30.283239009417183	0	1
27.530784889987984	31.520279944564702	0	1
37.958458577215154	43.322060736168119	0	1
36.488623612632047	43.19436265373389	0	1
41.091396458088653	53.551350469658374	0	1
32.325426036697024	37.768777940624368	0	1
21.526685931762255	34.617726929930988	0	1
20.382500000000004	35.303525585272638	0	1
21.901685931762255	35.267245982769317	0	1
23.320760994166815	34.750744899864607	0	1
32.278599716810874	46.424827609033798	0	1
32.021525310609988	47.877629857464356	0	1
28.81750000000001	49.913374147116123	0	1
33.750000000000007	58.456714755449603	0	1
28.115402140875855	40.999242895924276	0	1
24.782043477118521	42.923758417750143	0	1
20.746586954237028	35.934142688384171	0	1
19.2164879767118	35.951520341160695	0	1
15.600090120362889	37.661949142822607	0	1
19.5914879767118	36.601039393999024	0	1
18.43464738663187	37.571743906466004	0	1
25.452481074247487	51.670269315646806	0	1
24.065780217331028	51.166501157864303	0	1
25.831131684643569	62.361868444511856	0	1
21.448684813361186	44.848273939576011	0	1
11.833454868278167	39.009672786123495	0	1
10.550758373604268	39.375966308673867	0	1
12.027569152105057	39.734117155840295	0	1
13.531970721396208	39.602499073136713	0	1
19.163103552095365	53.197256324535005	0	1
18.53877585320641	54.534019784451694	0	1
14.917035664483796	55.671134998170452	0	1
17.470285544420165	65.19999327451211	0	1
16.546008148125523	46.879029106246726	0	1
12.828129656873944	47.875231645534626	0	1
10.73922364926409	40.079328292898801	0	1
9.2567638625962338	39.700095060240507	0	1
5.320900225850413	40.416249773903381	0	1
9.4508781464231237	40.424539429957306	0	1
8.0822191285720226	41.062755611384176	0	1
11.211959048283592	56.49723443042155	0	1
10.002893670801129	55.65172716472739	0	1
8.8105179748534983	66.922528142732205	0	1
9.1102511656223655	48.871434184822526	0	1
40.325367328277444	-5.3089353248968978	0	1
5.3089353248969031	40.325367328277444	0	1
40.234484882651522	-5.2969704239433932	0	1
5.2969704239433995	40.234484882651522	0	1
40.581666666666671	0	0	2
2.4849104093699087e-015	40.581666666666671	0	2
[NumSegments] = 104
0	1	2.5	0	0	2
5	6	2.5	0	0	2
10	11	2.5	0	0	2
24	26	-1	3	0	2
26	28	-1	2	0	2
25	27	-1	3	0	2
27	28	-1	2	0	2
32	30	2.5	0	0	1
33	32	2.5	0	0	1
36	35	2.5	0	0	1
37	29	-1	8	0	1
39	40	2.5	0	0	1
41	32	2.5	0	0	1
39	33	2.5	0	0	1
34	39	2.5	0	0	1
44	42	2.5	0	0	1
45	44	2.5	0	0	1
36	46	2.5	0	0	1
48	43	2.5	0	0	1
49	40	2.5	0	0	1
41	44	2.5	0	0	1
49	45	2.5	0	0	1
47	49	2.5	0	0	1
52	50	2.5	0	0	1
53	52	2.5	0	0	1
56	55	2.5	0	0	1
58	59	2.5	0	0	1
60	52	2.5	0	0	1
58	53	2.5	0	0	1
54	58	2.5	0	0	1
63	61	2.5	0	0	1
64	63	2.5	0	0	1
56	65	2.5	0	0	1
67	62	2.5	0	0	1
68	59	2.5	0	0	1
60	63	2.5	0	0	1
68	64	2.5	0	0	1
66	68	2.5	0	0	1
71	69	2.5	0	0	1
72	71	2.5	0	0	1
75	74	2.5	0	0	1
77	78	2.5	0	0	1
79	71	2.5	0	0	1
77	72	2.5	0	0	1
73	77	2.5	0	0	1
82	80	2.5	0	0	1
83	82	2.5	0	0	1
75	84	2.5	0	0	1
86	81	2.5	0	0	1
87	78	2.5	0	0	1
79	82	2.5	0	0	1
87	83	2.5	0	0	1
85	87	2.5	0	0	1
90	88	2.5	0	0	1
91	90	2.5	0	0	1
94	93	2.5	0	0	1
96	97	2.5	0	0	1
98	90	2.5	0	0	1
96	91	2.5	0	0	1
92	96	2.5	0	0	1
101	99	2.5	0	0	1
102	101	2.5	0	0	1
94	103	2.5	0	0	1
105	100	2.5	0	0	1
106	97	2.5	0	0	1
98	101	2.5	0	0	1
106	102	2.5	0	0	1
104	106	2.5	0	0	1
109	107	2.5	0	0	1
110	109	2.5	0	0	1
113	112	2.5	0	0	1
115	116	2.5	0	0	1
117	109	2.5	0	0	1
115	110	2.5	0	0	1
111	115	2.5	0	0	1
120	118	2.5	0	0	1
121	120	2.5	0	0	1
113	122	2.5	0	0	1
124	119	2.5	0	0	1
125	116	2.5	0	0	1
117	120	2.5	0	0	1
125	121	2.5	0	0	1
123	125	2.5	0	0	1
128	126	2.5	0	0	1
129	128	2.5	0	0	1
132	131	2.5	0	0	1
134	135	2.5	0	0	1
136	128	2.5	0	0	1
134	129	2.5	0	0	1
130	134	2.5	0	0	1
139	137	2.5	0	0	1
140	139	2.5	0	0	1
132	141	2.5	0	0	1
143	138	-1	8	0	1
144	135	2.5	0	0	1
136	139	2.5	0	0	1
144	140	2.5	0	0	1
142	144	2.5	0	0	1
145	29	0.25	6	0	1
146	138	0.25	6	0	1
145	147	0.25	5	0	1
146	148	0.25	5	0	1
24	149	0.25	4	0	2
25	150	0.25	4	0	2
[NumArcSegments] = 78
2	3	135.08508565488845	20	0	0	2
4	2	33.262775442892575	3.6724463095413289	0	0	2
3	1	28.546181928784137	1.480338615961722	0	0	2
4	0	16.894043026565015	1.820444009904058	0	0	2
7	8	114.36640815573725	20	0	0	2
9	7	61.728181552800564	9.1771483853379934	0	0	2
8	6	37.725597671673825	1.1533375721123977	0	0	2
9	5	33.820187380211621	1.3498113738692279	0	0	2
12	13	99.686415801570377	18.096210565723542	0	0	2
14	12	79.269350776635036	13.454771565656891	0	0	2
13	11	41.001161124080141	0.92337508134334079	0	0	2
14	10	39.956927702285071	1.045173504961725	0	0	2
15	16	135.0850856548885	20	0	0	2
16	17	33.262775442892561	3.6724463095413409	0	0	2
1	15	28.546181928784137	1.480338615961724	0	0	2
0	17	16.894043026565015	1.8204440099040586	0	0	2
18	19	114.36640815573728	20	0	0	2
19	20	61.728181552800443	9.1771483853380165	0	0	2
6	18	37.725597671673796	1.1533375721123988	0	0	2
5	20	33.820187380211593	1.3498113738692283	0	0	2
21	22	99.686415801570362	18.096210565725219	0	0	2
22	23	79.269350776635036	13.454771565656429	0	0	2
11	21	41.001161124080099	0.92337508134334056	0	0	2
10	23	39.956927702285043	1.0451735049617246	0	0	2
24	25	89.999999999999986	0.88441250174552843	0	0	2
26	27	89.999999999999986	2.1353525459556622	0	0	2
29	30	5.6249999999999991	0.87844626997857123	0	0	1
30	31	1.8749999999999998	0.878446269978571	0	0	1
34	35	95.069312791073187	20	0	0	1
37	38	7.4999999999999991	2.5	1	0	1
42	43	5.6249999999999991	0.87844626997857123	0	0	1
31	42	1.8749999999999998	0.878446269978571	0	0	1
46	47	95.069312791073187	20	0	0	1
38	48	7.4999999999999991	2.5	1	0	1
43	50	5.6250000000000009	0.878446269978571	0	0	1
50	51	1.8749999999999964	0.87844626997857123	0	0	1
54	55	95.069312791073443	20	0	0	1
48	57	7.4999999999999973	2.5	1	0	1
61	62	5.6250000000000036	0.87844626997857111	0	0	1
51	61	1.8750000000000018	0.878446269978571	0	0	1
65	66	95.069312791073756	20	0	0	1
57	67	7.5000000000000018	2.5	1	0	1
62	69	5.6249999999999964	0.87844626997857111	0	0	1
69	70	1.875	0.87844626997857089	0	0	1
73	74	95.069312791073315	20	0	0	1
67	76	7.5	2.5	1	0	1
80	81	5.6250000000000036	0.87844626997857111	0	0	1
70	80	1.8749999999999964	0.87844626997857123	0	0	1
84	85	95.06931279107279	20	0	0	1
76	86	7.5	2.5	1	0	1
81	88	5.6249999999999929	0.87844626997857123	0	0	1
88	89	1.875	0.87844626997857111	0	0	1
92	93	95.069312791073088	20	0	0	1
86	95	7.5000000000000071	2.5	1	0	1
99	100	5.6249999999999929	0.878446269978571	0	0	1
89	99	1.8750000000000142	0.87844626997857123	0	0	1
103	104	95.069312791073074	20	0	0	1
95	105	7.5	2.5	1	0	1
100	107	5.625	0.87844626997857111	0	0	1
107	108	1.8749999999999929	0.87844626997857111	0	0	1
111	112	95.069312791073401	20	0	0	1
105	114	7.4999999999999929	2.5	1	0	1
118	119	5.6250000000000071	0.87844626997857089	0	0	1
108	118	1.875	0.87844626997857111	0	0	1
122	123	95.069312791073116	20	0	0	1
114	124	7.5000000000000071	2.5	1	0	1
119	126	5.6250000000000142	0.87844626997857111	0	0	1
126	127	1.8749999999999858	0.87844626997857123	0	0	1
130	131	95.069312791073344	20	0	0	1
124	133	7.5	2.5	1	0	1
137	138	5.625	0.87844626997857111	0	0	1
127	137	1.875	0.87844626997857111	0	0	1
141	142	95.069312791073358	20	0	0	1
133	143	7.5000000000000142	2.5	1	0	1
145	146	90	0.25	0	0	1
147	149	7.5	0.25	7	0	20
149	148	82.5	0.25	0	0	20
148	150	7.5	0.25	7	0	20
[NumHoles] = 0
[NumBlockLabels] = 35
20.214502820221529	32.430610396495865	5	2.5	0	32.835096731006288	2	1	0
12.07745798887724	35.952383339241344	6	2.5	0	25.085132043139502	2	1	0
4.0817171623790856	37.631862731186246	7	2.5	0	21.86726121966251	2	1	0
32.430610396495872	20.214502820221519	8	2.5	0	57.16490326899369	2	1	0
35.952383339241344	12.077457988877235	9	2.5	0	64.914867956860476	2	1	0
37.631862731186246	4.0817171623790784	10	2.5	0	68.132738780337462	2	1	0
12.462762805751712	12.46276280575171	1	2.5	0	0	22	1	0
5.9290903602492016	5.9290903602492007	1	2.5	0	0	2	1	0
41.129086954237025	0	4	2.5	0	0	1	1	0
39.727647300786337	10.64499101143417	4	2.5	0	0	1	1	0
35.618834136828411	20.564543477118509	4	2.5	0	0	1	1	0
29.082656289352169	29.082656289352162	4	2.5	0	0	1	1	0
20.564543477118516	35.618834136828404	4	2.5	0	0	1	1	0
10.644991011434179	39.72764730078633	4	2.5	0	0	1	1	0
45.659747667517848	0	2	2.5	1	0	1	1	0
53.599543477118516	0	2	2.5	1	0	1	1	0
44.103929493897539	11.817612290929018	2	2.5	1	0	1	1	0
51.773183321852542	13.872582660678859	2	2.5	1	0	1	1	0
39.542501410457731	22.829873833758921	2	2.5	6	0	1	1	0
46.41856628243314	26.799771738559254	2	2.5	6	0	1	1	0
32.286317202968519	32.286317202968512	2	2.5	6	0	1	1	0
37.900600661173684	37.900600661173677	2	2.5	6	0	1	1	0
22.829873833758928	39.542501410457724	2	2.5	2	0	1	1	0
26.799771738559265	46.418566282433133	2	2.5	2	0	1	1	0
11.817612290929029	44.103929493897532	2	2.5	2	0	1	1	0
13.872582660678871	51.773183321852535	2	2.5	2	0	1	1	0
62.567500000000003	0	1	2.5	0	0	12	1	0
60.435564136341284	16.193660604451967	1	2.5	0	0	12	1	0
54.18504445128287	31.283749999999998	1	2.5	0	0	12	1	0
44.241903531889314	44.241903531889307	1	2.5	0	0	12	1	0
31.283750000000008	54.185044451282863	1	2.5	0	0	12	1	0
16.193660604451981	60.435564136341277	1	2.5	0	0	12	1	0
28.792798874265227	28.792798874265223	4	0.25	0	0	1	1	0
28.727980752656464	28.72798075265646	4	0.25	0	0	1	1	0
28.663162631047697	28.663162631047694	4	0.25	0	0	2	1	0
