[Format]      =  4.0
[Frequency]   =  0
[Precision]   =  1e-008
[MinAngle]    =  15
[Depth]       =  101
[LengthUnits] =  millimeters
[ProblemType] =  planar
[Coordinates] =  cartesian
[ACSolver]    =  0
[Comment]     =  "Add comments here."
[PointProps]   = 0
[BdryProps]   = 9
  <BeginBdry>
    <BdryName> = "A=0"
    <BdryType> = 0
    <A_0> = 0
    <A_1> = 0
    <A_2> = 0
    <Phi> = 0
    <c0> = 0
    <c0i> = 0
    <c1> = 0
    <c1i> = 0
    <Mu_ssd> = 0
    <Sigma_ssd> = 0
  <EndBdry>
  <BeginBdry>
    <BdryName> = "APr1"
    <BdryType> = 5
    <A_0> = 0
    <A_1> = 0
    <A_2> = 0
    <Phi> = 0
    <c0> = 0
    <c0i> = 0
    <c1> = 0
    <c1i> = 0
    <Mu_ssd> = 0
    <Sigma_ssd> = 0
  <EndBdry>
  <BeginBdry>
    <BdryName> = "APr2"
    <BdryType> = 5
    <A_0> = 0
    <A_1> = 0
    <A_2> = 0
    <Phi> = 0
    <c0> = 0
    <c0i> = 0
    <c1> = 0
    <c1i> = 0
    <Mu_ssd> = 0
    <Sigma_ssd> = 0
  <EndBdry>
  <BeginBdry>
    <BdryName> = "APg1"
    <BdryType> = 5
    <A_0> = 0
    <A_1> = 0
    <A_2> = 0
    <Phi> = 0
    <c0> = 0
    <c0i> = 0
    <c1> = 0
    <c1i> = 0
    <Mu_ssd> = 0
    <Sigma_ssd> = 0
  <EndBdry>
  <BeginBdry>
    <BdryName> = "APg2"
    <BdryType> = 5
    <A_0> = 0
    <A_1> = 0
    <A_2> = 0
    <Phi> = 0
    <c0> = 0
    <c0i> = 0
    <c1> = 0
    <c1i> = 0
    <Mu_ssd> = 0
    <Sigma_ssd> = 0
  <EndBdry>
  <BeginBdry>
    <BdryName> = "APg3"
    <BdryType> = 5
    <A_0> = 0
    <A_1> = 0
    <A_2> = 0
    <Phi> = 0
    <c0> = 0
    <c0i> = 0
    <c1> = 0
    <c1i> = 0
    <Mu_ssd> = 0
    <Sigma_ssd> = 0
  <EndBdry>
  <BeginBdry>
    <BdryName> = "APmove"
    <BdryType> = 5
    <A_0> = 0
    <A_1> = 0
    <A_2> = 0
    <Phi> = 0
    <c0> = 0
    <c0i> = 0
    <c1> = 0
    <c1i> = 0
    <Mu_ssd> = 0
    <Sigma_ssd> = 0
  <EndBdry>
  <BeginBdry>
    <BdryName> = "APs1"
    <BdryType> = 5
    <A_0> = 0
    <A_1> = 0
    <A_2> = 0
    <Phi> = 0
    <c0> = 0
    <c0i> = 0
    <c1> = 0
    <c1i> = 0
    <Mu_ssd> = 0
    <Sigma_ssd> = 0
  <EndBdry>
  <BeginBdry>
    <BdryName> = "APs2"
    <BdryType> = 5
    <A_0> = 0
    <A_1> = 0
    <A_2> = 0
    <Phi> = 0
    <c0> = 0
    <c0i> = 0
    <c1> = 0
    <c1i> = 0
    <Mu_ssd> = 0
    <Sigma_ssd> = 0
  <EndBdry>
[BlockProps]  = 10
  <BeginBlock>
    <BlockName> = "M530-65A-OK"
    <Mu_x> = 1
    <Mu_y> = 1
    <H_c> = 0
    <H_cAngle> = 0
    <J_re> = 0
    <J_im> = 0
    <Sigma> = 0
    <d_lam> = 0
    <Phi_h> = 0
    <Phi_hx> = 0
    <Phi_hy> = 0
    <LamType> = 0
    <LamFill> = 1
    <NStrands> = 0
    <WireD> = 0
    <BHPoints> = 199
      0	0
      0.018848	12.326973000000001
      0.038573999999999997	22.163343000000001
      0.059312999999999998	30.264441000000001
      0.081240999999999994	37.121026999999998
      0.104587	43.070056000000001
      0.12967000000000001	48.356479
      0.156946	53.171472999999999
      0.187116	57.680774999999997
      0.221361	62.054786999999997
      0.26198100000000002	66.524258000000003
      0.314919	71.574237999999994
      0.442722	82.040378000000004
      0.57165600000000005	92.228953000000004
      0.62506200000000001	96.637904000000006
      0.66604200000000002	100.157055
      0.70059000000000005	103.243889
      0.73102699999999998	106.07473
      0.75854500000000002	108.74006199999999
      0.78385000000000005	111.294023
      0.80740299999999998	113.77241100000001
      0.82952400000000004	116.200692
      0.85044799999999998	118.598054
      0.87034800000000001	120.97966099999999
      0.88936300000000001	123.358001
      0.90760099999999999	125.743736
      0.925149	128.146277
      0.94208199999999997	130.574173
      0.95845899999999995	133.03539799999999
      0.97433099999999995	135.53756799999999
      0.98974300000000004	138.088109
      1.0047330000000001	140.69439700000001
      1.019333	143.36387099999999
      1.0335719999999999	146.10414599999999
      1.047477	148.923102
      1.0610679999999999	151.82898499999999
      1.074368	154.830499
      1.0873930000000001	157.93690100000001
      1.10016	161.158107
      1.1126830000000001	164.50479999999999
      1.1249769999999999	167.98855499999999
      1.137054	171.62196900000001
      1.1489229999999999	175.41881900000001
      1.1605970000000001	179.394229
      1.1720839999999999	183.56486799999999
      1.183392	187.94917699999999
      1.194531	192.56763000000001
      1.2055070000000001	197.44303199999999
      1.2163269999999999	202.600876
      1.226998	208.069751
      1.237525	213.881823
      1.2479150000000001	220.073407
      1.258173	226.685632
      1.268303	233.76522800000001
      1.278311	241.36546999999999
      1.2882	249.547281
      1.297974	258.38055000000003
      1.307639	267.945695
      1.317196	278.33551
      1.3266500000000001	289.657352
      1.336004	302.03570000000002
      1.345261	315.615139
      1.3544240000000001	330.56378699999999
      1.363496	347.07715100000001
      1.372479	365.38233400000001
      1.3813770000000001	385.74240600000002
      1.390191	408.46058799999997
      1.3989229999999999	433.88362499999999
      1.4075770000000001	462.40341799999999
      1.416153	494.45556900000003
      1.424655	530.51313400000004
      1.433084	571.07376399999998
      1.4414419999999999	616.63877300000001
      1.44973	667.683943
      1.457951	724.6241
      1.466105	787.77634999999998
      1.4741949999999999	857.32916
      1.4822219999999999	933.32478600000002
      1.4901880000000001	1015.660001
      1.498094	1104.1052070000001
      1.5059400000000001	1198.337168
      1.51373	1297.9777180000001
      1.521463	1402.631005
      1.5291399999999999	1511.9141030000001
      1.5367649999999999	1625.4788289999999
      1.5443359999999999	1743.0249819999999
      1.5518559999999999	1864.306583
      1.5593250000000001	1989.1331339999999
      1.5667439999999999	2117.3677389999998
      1.5741149999999999	2248.9235370000001
      1.5814379999999999	2383.7594840000002
      1.588714	2521.8761
      1.595944	2663.3115870000001
      1.603129	2808.1384779999998
      1.6102700000000001	2956.460916
      1.6173679999999999	3108.4125450000001
      1.624423	3264.1550130000001
      1.6314360000000001	3423.8770279999999
      1.6384080000000001	3587.7939299999998
      1.64534	3756.1477399999999
      1.6522319999999999	3929.2076630000001
      1.659084	4107.2710040000002
      1.665899	4290.6645090000002
      1.6726749999999999	4479.7461000000003
      1.6794150000000001	4674.9070380000003
      1.686118	4876.5745010000001
      1.692785	5085.214626
      1.699417	5301.3360259999999
      1.7060139999999999	5525.493837
      1.7125760000000001	5758.2943370000003
      1.7191050000000001	6000.4002049999999
      1.7256009999999999	6252.5364829999999
      1.732064	6515.4973220000002
      1.738494	6790.15362
      1.744893	7077.4616260000003
      1.751261	7378.4726540000001
      1.757598	7694.3440220000002
      1.7639039999999999	8026.3513469999998
      1.7701800000000001	8375.9023460000008
      1.776427	8744.552291
      1.782645	9134.0212510000001
      1.788834	9546.2132579999998
      1.7949949999999999	9983.2374779999991
      1.8011280000000001	10447.43145
      1.8072330000000001	10941.38629
      1.8133109999999999	11467.973819999999
      1.8193619999999999	12030.37499
      1.8253870000000001	12632.10929
      1.831385	13277.063829999999
      1.837358	13969.52079
      1.843305	14714.181049999999
      1.8492280000000001	15516.181070000001
      1.8551249999999999	16381.09935
      1.8609979999999999	17314.947639999999
      1.866846	18324.141339999998
      1.872671	19415.442930000001
      1.8784719999999999	20595.871869999999
      1.88425	21872.575840000001
      1.890004	23252.659780000002
      1.8957360000000001	24742.973529999999
      1.9014450000000001	26349.86418
      1.907133	28078.906019999999
      1.912798	29934.628089999998
      1.9184410000000001	31920.26454
      1.9240630000000001	34037.555240000002
      1.9296629999999999	36286.621249999997
      1.935243	38665.931929999999
      1.9408019999999999	41172.369030000002
      1.94634	43801.379809999999
      1.9518580000000001	46547.200389999998
      1.957355	49403.123290000003
      1.962833	52361.781179999998
      1.9682919999999999	55415.421999999999
      1.97373	58556.156179999998
      1.97915	61776.164400000001
      1.98455	65067.860919999999
      1.989932	68424.013019999999
      1.995295	71837.820730000007
      2.0006390000000001	75302.963180000006
      2.0059659999999999	78813.618239999996
      2.0112739999999998	82364.46213
      2.0165639999999998	85950.654729999995
      2.021836	89567.815289999999
      2.027091	93211.992480000001
      2.0323289999999998	96879.631450000001
      2.0375489999999998	100567.53999999999
      2.0427529999999998	104272.8551
      2.047939	107993.01149999999
      2.0531090000000001	111725.7111
      2.058262	115468.8958
      2.063399	119220.7224
      2.0685199999999999	122979.53909999999
      2.0736240000000001	126743.8655
      2.078713	130512.374
      2.0837859999999999	134283.8731
      2.0888429999999998	138057.29300000001
      2.0938850000000002	141831.67240000001
      2.0989110000000002	145606.147
      2.1039219999999998	149379.93890000001
      2.1089190000000002	153152.34830000001
      2.1139000000000001	156922.74419999999
      2.1188660000000001	160690.55840000001
      2.123818	164455.2782
      2.128755	168216.44140000001
      2.1336780000000002	171973.63080000001
      2.1385860000000001	175726.46979999999
      2.1434799999999998	179474.6188
      2.148361	183217.77100000001
      2.1532269999999998	186955.64970000001
      2.1580789999999999	190688.00520000001
      2.1629179999999999	194414.61249999999
      2.1677430000000002	198135.26860000001
      2.172555	201849.79079999999
      2.1773539999999998	205558.0148
      2.1821389999999998	209259.79310000001
      2.1869109999999998	212954.99309999999
      2.1916699999999998	216643.4963
      2.1964160000000001	220325.1967
      2.201149	224000
  <EndBlock>
  <BeginBlock>
    <BlockName> = "Copper"
    <Mu_x> = 1
    <Mu_y> = 1
    <H_c> = 0
    <H_cAngle> = 0
    <J_re> = 0
    <J_im> = 0
    <Sigma> = 58
    <d_lam> = 0
    <Phi_h> = 0
    <Phi_hx> = 0
    <Phi_hy> = 0
    <LamType> = 0
    <LamFill> = 1
    <NStrands> = 0
    <WireD> = 0
    <BHPoints> = 0
  <EndBlock>
  <BeginBlock>
    <BlockName> = "Bonded-Magnet"
    <Mu_x> = 1
    <Mu_y> = 1
    <H_c> = 397887.35772973835
    <H_cAngle> = 0
    <J_re> = 0
    <J_im> = 0
    <Sigma> = 0
    <d_lam> = 0
    <Phi_h> = 0
    <Phi_hx> = 0
    <Phi_hy> = 0
    <LamType> = 0
    <LamFill> = 1
    <NStrands> = 0
    <WireD> = 0
    <BHPoints> = 0
  <EndBlock>
  <BeginBlock>
    <BlockName> = "Air"
    <Mu_x> = 1
    <Mu_y> = 1
    <H_c> = 0
    <H_cAngle> = 0
    <J_re> = 0
    <J_im> = 0
    <Sigma> = 0
    <d_lam> = 0
    <Phi_h> = 0
    <Phi_hx> = 0
    <Phi_hy> = 0
    <LamType> = 0
    <LamFill> = 1
    <NStrands> = 0
    <WireD> = 0
    <BHPoints> = 0
  <EndBlock>
  <BeginBlock>
    <BlockName> = "Bonded-Magnet1"
    <Mu_x> = 1
    <Mu_y> = 1
    <H_c> = 397887.35772973835
    <H_cAngle> = 0
    <J_re> = 0
    <J_im> = 0
    <Sigma> = 0
    <d_lam> = 0
    <Phi_h> = 0
    <Phi_hx> = 0
    <Phi_hy> = 0
    <LamType> = 0
    <LamFill> = 1
    <NStrands> = 0
    <WireD> = 0
    <BHPoints> = 0
  <EndBlock>
  <BeginBlock>
    <BlockName> = "Bonded-Magnet2"
    <Mu_x> = 1
    <Mu_y> = 1
    <H_c> = 397887.35772973835
    <H_cAngle> = 0
    <J_re> = 0
    <J_im> = 0
    <Sigma> = 0
    <d_lam> = 0
    <Phi_h> = 0
    <Phi_hx> = 0
    <Phi_hy> = 0
    <LamType> = 0
    <LamFill> = 1
    <NStrands> = 0
    <WireD> = 0
    <BHPoints> = 0
  <EndBlock>
  <BeginBlock>
    <BlockName> = "Bonded-Magnet3"
    <Mu_x> = 1
    <Mu_y> = 1
    <H_c> = 397887.35772973835
    <H_cAngle> = 0
    <J_re> = 0
    <J_im> = 0
    <Sigma> = 0
    <d_lam> = 0
    <Phi_h> = 0
    <Phi_hx> = 0
    <Phi_hy> = 0
    <LamType> = 0
    <LamFill> = 1
    <NStrands> = 0
    <WireD> = 0
    <BHPoints> = 0
  <EndBlock>
  <BeginBlock>
    <BlockName> = "Bonded-Magnet4"
    <Mu_x> = 1
    <Mu_y> = 1
    <H_c> = 397887.35772973835
    <H_cAngle> = 0
    <J_re> = 0
    <J_im> = 0
    <Sigma> = 0
    <d_lam> = 0
    <Phi_h> = 0
    <Phi_hx> = 0
    <Phi_hy> = 0
    <LamType> = 0
    <LamFill> = 1
    <NStrands> = 0
    <WireD> = 0
    <BHPoints> = 0
  <EndBlock>
  <BeginBlock>
    <BlockName> = "Bonded-Magnet5"
    <Mu_x> = 1
    <Mu_y> = 1
    <H_c> = 397887.35772973835
    <H_cAngle> = 0
    <J_re> = 0
    <J_im> = 0
    <Sigma> = 0
    <d_lam> = 0
    <Phi_h> = 0
    <Phi_hx> = 0
    <Phi_hy> = 0
    <LamType> = 0
    <LamFill> = 1
    <NStrands> = 0
    <WireD> = 0
    <BHPoints> = 0
  <EndBlock>
  <BeginBlock>
    <BlockName> = "Bonded-Magnet6"
    <Mu_x> = 1
    <Mu_y> = 1
    <H_c> = 397887.35772973835
    <H_cAngle> = 0
    <J_re> = 0
    <J_im> = 0
    <Sigma> = 0
    <d_lam> = 0
    <Phi_h> = 0
    <Phi_hx> = 0
    <Phi_hy> = 0
    <LamType> = 0
    <LamFill> = 1
    <NStrands> = 0
    <WireD> = 0
    <BHPoints> = 0
  <EndBlock>
[CircuitProps]  = 6
  <BeginCircuit>
    <CircuitName> = "fase1"
    <TotalAmps_re> = 0
    <TotalAmps_im> = 0
    <CircuitType> = 1
  <EndCircuit>
  <BeginCircuit>
    <CircuitName> = "fase2"
    <TotalAmps_re> = 0
    <TotalAmps_im> = 0
    <CircuitType> = 1
  <EndCircuit>
  <BeginCircuit>
    <CircuitName> = "fase3"
    <TotalAmps_re> = 0
    <TotalAmps_im> = 0
    <CircuitType> = 1
  <EndCircuit>
  <BeginCircuit>
    <CircuitName> = "fase1n"
    <TotalAmps_re> = 0
    <TotalAmps_im> = 0
    <CircuitType> = 1
  <EndCircuit>
  <BeginCircuit>
    <CircuitName> = "fase2n"
    <TotalAmps_re> = 0
    <TotalAmps_im> = 0
    <CircuitType> = 1
  <EndCircuit>
  <BeginCircuit>
    <CircuitName> = "fase3n"
    <TotalAmps_re> = 0
    <TotalAmps_im> = 0
    <CircuitType> = 1
  <EndCircuit>
[NumPoints] = 145
22.609207742540278	32.626766588389764	0	2
17.998887513088977	30.59933829861027	0	2
23.116524098640735	23.116524098640731	0	2
26.677810248916089	26.677810248916082	0	2
13.329833894588738	36.353153376243405	0	2
8.3508380772395139	35.594787541632563	0	2
17.502081062980348	17.502081062980348	0	2
21.063367213255702	21.063367213255699	0	2
4.1751369961908864	38.277933749271639	0	2
0.4738513673957705	38.052475401186868	0	2
12.141863574861818	12.141863574861816	0	2
14.763918758553261	14.76391875855326	0	2
30.599338298610274	17.998887513088974	0	2
32.626766588389771	22.609207742540274	0	2
35.594787541632563	8.3508380772395086	0	2
36.353153376243405	13.329833894588733	0	2
38.052475401186868	0.47385136739576339	0	2
38.277933749271639	4.1751369961908793	0	2
40.490000000000002	0	0	2
7.1054273576010019e-015	40.490000000000002	0	2
16.771188140053454	0	0	2
3.5527136788005009e-015	16.771188140053454	0	2
0	0	0	2
40.416249773903381	-5.3209002258504023	0	1
40.743173908474049	-1.3337934112297045	0	1
40.765000000000001	0	0	1
41.493173908474049	-1.3337934112297045	0	1
42.214876260911296	-2.8814891005794077	0	1
56.344379934141891	-4.7416735488304997	0	1
57.474006384857461	-3.7926394581824514	0	1
57.635000000000005	0	0	1
66.922528142732205	-8.8105179748534805	0	1
67.5	0	0	1
49.564086954237027	-3.8490310436517374	0	1
49.564086954237027	0	0	1
41.493173908474049	0	0	1
40.743173908474049	1.3337934112297045	0	1
40.416249773903381	5.3209002258504023	0	1
41.493173908474049	1.3337934112297045	0	1
42.214876260911296	2.8814891005794077	0	1
57.474006384857461	3.7926394581824514	0	1
56.344379934141891	4.7416735488304997	0	1
66.922528142732205	8.8105179748534805	0	1
49.564086954237027	3.8490310436517374	0	1
39.700095060240507	9.256763862596225	0	1
39.375966308673867	10.550758373604259	0	1
40.424539429957314	9.4508781464231149	0	1
41.522223491496803	8.1427092225500246	0	1
55.651727164727397	10.002893670801114	0	1
56.49723443042155	11.21195904828358	0	1
55.671134998170459	14.917035664483784	0	1
65.19999327451211	17.47028554442015	0	1
48.871434184822533	9.1102511656223548	0	1
47.875231645534633	12.828129656873934	0	1
40.079328292898808	10.739223649264082	0	1
39.009672786123495	11.833454868278158	0	1
37.6619491428226	15.600090120362884	0	1
39.734117155840302	12.027569152105048	0	1
40.030654976526236	13.709318703390242	0	1
54.534019784451708	18.538775853206396	0	1
53.197256324535012	19.163103552095354	0	1
62.361868444511856	25.831131684643559	0	1
46.879029106246733	16.546008148125512	0	1
35.951520341160702	19.216487976711793	0	1
35.303525585272645	20.382499999999997	0	1
36.601039393999031	19.591487976711793	0	1
37.999899809855521	18.611995368625905	0	1
51.16650115786431	24.065780217331017	0	1
51.670269315646813	25.452481074247473	0	1
49.91337414711613	28.817499999999999	0	1
58.45671475544961	33.749999999999993	0	1
44.848273939576018	21.448684813361176	0	1
42.92375841775015	24.78204347711851	0	1
35.934142688384178	20.746586954237021	0	1
34.617726929930996	21.526685931762248	0	1
32.341048916972198	24.816159653540492	0	1
35.267245982769325	21.901685931762248	0	1
35.11841070927612	23.602880892285384	0	1
47.877629857464363	32.021525310609981	0	1
46.424827609033805	32.278599716810866	0	1
53.551350469658381	41.091396458088639	0	1
40.999242895924283	28.115402140875844	0	1
29.752908923527276	27.866640191962347	0	1
28.825207935069614	28.825207935069606	0	1
30.283239009417187	28.396970277852258	0	1
31.887945753976208	27.812904788106557	0	1
43.194362653733897	36.48862361263204	0	1
43.322060736168126	37.958458577215147	0	1
40.754099333686675	40.754099333686668	0	1
47.72970773009196	47.729707730091953	0	1
37.768777940624375	32.325426036697017	0	1
35.0471019886607	35.047101988660692	0	1
29.340104643634724	29.340104643634721	0	1
27.86664019196235	29.752908923527272	0	1
24.816159653540499	32.341048916972198	0	1
28.396970277852262	30.283239009417183	0	1
27.812904788106561	31.887945753976204	0	1
37.958458577215154	43.322060736168119	0	1
36.488623612632047	43.19436265373389	0	1
41.091396458088653	53.551350469658374	0	1
32.325426036697024	37.768777940624368	0	1
21.526685931762255	34.617726929930988	0	1
20.382500000000004	35.303525585272638	0	1
21.901685931762255	35.267245982769317	0	1
23.602880892285391	35.11841070927612	0	1
32.278599716810881	46.424827609033798	0	1
32.021525310609988	47.877629857464356	0	1
28.81750000000001	49.913374147116123	0	1
33.750000000000007	58.456714755449603	0	1
28.115402140875855	40.999242895924276	0	1
24.782043477118521	42.923758417750143	0	1
20.746586954237028	35.934142688384171	0	1
19.2164879767118	35.951520341160695	0	1
15.600090120362889	37.661949142822607	0	1
19.5914879767118	36.601039393999024	0	1
18.611995368625912	37.999899809855521	0	1
25.452481074247487	51.670269315646806	0	1
24.065780217331028	51.166501157864303	0	1
25.831131684643569	62.361868444511856	0	1
21.448684813361186	44.848273939576011	0	1
11.833454868278167	39.009672786123495	0	1
10.550758373604268	39.375966308673867	0	1
12.027569152105057	39.734117155840295	0	1
13.709318703390251	40.030654976526229	0	1
19.163103552095365	53.197256324535005	0	1
18.53877585320641	54.534019784451694	0	1
14.917035664483796	55.671134998170452	0	1
17.470285544420165	65.19999327451211	0	1
16.546008148125523	46.879029106246726	0	1
12.828129656873944	47.875231645534626	0	1
10.73922364926409	40.079328292898801	0	1
9.2567638625962338	39.700095060240507	0	1
5.320900225850413	40.416249773903381	0	1
9.4508781464231237	40.424539429957306	0	1
8.1427092225500335	41.522223491496796	0	1
11.211959048283592	56.49723443042155	0	1
10.002893670801129	55.65172716472739	0	1
8.8105179748534983	66.922528142732205	0	1
9.1102511656223655	48.871434184822526	0	1
40.325367328277444	-5.3089353248968978	0	1
5.3089353248969031	40.325367328277444	0	1
40.234484882651522	-5.2969704239433932	0	1
5.2969704239433995	40.234484882651522	0	1
40.581666666666671	0	0	2
2.4849104093699087e-015	40.581666666666671	0	2
[NumSegments] = 104
3	2	5	0	0	2
7	6	5	0	0	2
11	10	5	0	0	2
18	20	-1	3	0	2
20	22	-1	2	0	2
19	21	-1	3	0	2
21	22	-1	2	0	2
26	24	5	0	0	1
27	26	5	0	0	1
30	29	5	0	0	1
31	23	-1	8	0	1
33	34	5	0	0	1
35	26	5	0	0	1
33	27	5	0	0	1
28	33	5	0	0	1
38	36	5	0	0	1
39	38	5	0	0	1
30	40	5	0	0	1
42	37	5	0	0	1
43	34	5	0	0	1
35	38	5	0	0	1
43	39	5	0	0	1
41	43	5	0	0	1
46	44	5	0	0	1
47	46	5	0	0	1
50	49	5	0	0	1
52	53	5	0	0	1
54	46	5	0	0	1
52	47	5	0	0	1
48	52	5	0	0	1
57	55	5	0	0	1
58	57	5	0	0	1
50	59	5	0	0	1
61	56	5	0	0	1
62	53	5	0	0	1
54	57	5	0	0	1
62	58	5	0	0	1
60	62	5	0	0	1
65	63	5	0	0	1
66	65	5	0	0	1
69	68	5	0	0	1
71	72	5	0	0	1
73	65	5	0	0	1
71	66	5	0	0	1
67	71	5	0	0	1
76	74	5	0	0	1
77	76	5	0	0	1
69	78	5	0	0	1
80	75	5	0	0	1
81	72	5	0	0	1
73	76	5	0	0	1
81	77	5	0	0	1
79	81	5	0	0	1
84	82	5	0	0	1
85	84	5	0	0	1
88	87	5	0	0	1
90	91	5	0	0	1
92	84	5	0	0	1
90	85	5	0	0	1
86	90	5	0	0	1
95	93	5	0	0	1
96	95	5	0	0	1
88	97	5	0	0	1
99	94	5	0	0	1
100	91	5	0	0	1
92	95	5	0	0	1
100	96	5	0	0	1
98	100	5	0	0	1
103	101	5	0	0	1
104	103	5	0	0	1
107	106	5	0	0	1
109	110	5	0	0	1
111	103	5	0	0	1
109	104	5	0	0	1
105	109	5	0	0	1
114	112	5	0	0	1
115	114	5	0	0	1
107	116	5	0	0	1
118	113	5	0	0	1
119	110	5	0	0	1
111	114	5	0	0	1
119	115	5	0	0	1
117	119	5	0	0	1
122	120	5	0	0	1
123	122	5	0	0	1
126	125	5	0	0	1
128	129	5	0	0	1
130	122	5	0	0	1
128	123	5	0	0	1
124	128	5	0	0	1
133	131	5	0	0	1
134	133	5	0	0	1
126	135	5	0	0	1
137	132	-1	8	0	1
138	129	5	0	0	1
130	133	5	0	0	1
138	134	5	0	0	1
136	138	5	0	0	1
139	23	0.5	6	0	1
140	132	0.5	6	0	1
139	141	0.5	5	0	1
140	142	0.5	5	0	1
18	143	0.5	4	0	2
19	144	0.5	4	0	2
[NumArcSegments] = 72
0	1	179.99999999999977	20	0	0	2
1	2	21.262091007117704	2.9149488030702608	0	0	2
0	3	21.262091007117704	3.6665288919784071	0	0	2
4	5	179.99999999999997	20	0	0	2
5	6	36.339669134828767	2.2030177208552044	0	0	2
4	7	36.339669134828767	2.6068744563078972	0	0	2
8	9	179.99999999999997	20	0	0	2
9	10	41.514219227059357	1.7864593292604898	0	0	2
8	11	41.514219227059357	1.9685389433602385	0	0	2
12	13	179.99999999999994	20	0	0	2
2	12	21.262091007117689	2.9149488030702608	0	0	2
3	13	21.262091007117689	3.6665288919784076	0	0	2
14	15	180.00000000000028	20	0	0	2
6	14	36.339669134828753	2.2030177208552044	0	0	2
7	15	36.339669134828753	2.6068744563078976	0	0	2
16	17	179.99999999999997	20	0	0	2
10	16	41.514219227059343	1.78645932926049	0	0	2
11	17	41.514219227059343	1.9685389433602385	0	0	2
18	19	89.999999999999986	1.7688250034910569	0	0	2
20	21	89.999999999999986	4.2704025375702832	0	0	2
23	24	5.6249999999999991	1.7568925399571425	0	0	1
24	25	1.8749999999999998	1.756892539957142	0	0	1
28	29	95.069312791074239	20	0	0	1
31	32	7.4999999999999991	5	1	0	1
36	37	5.6249999999999991	1.7568925399571425	0	0	1
25	36	1.8749999999999998	1.756892539957142	0	0	1
40	41	95.069312791074239	20	0	0	1
32	42	7.4999999999999991	5	1	0	1
37	44	5.6250000000000009	1.756892539957142	0	0	1
44	45	1.8749999999999964	1.7568925399571425	0	0	1
48	49	95.069312791074708	20	0	0	1
42	51	7.4999999999999973	5	1	0	1
55	56	5.6250000000000036	1.7568925399571422	0	0	1
45	55	1.8750000000000018	1.756892539957142	0	0	1
59	60	95.069312791074509	20	0	0	1
51	61	7.5000000000000018	5	1	0	1
56	63	5.6249999999999964	1.7568925399571422	0	0	1
63	64	1.875	1.7568925399571418	0	0	1
67	68	95.069312791073912	20	0	0	1
61	70	7.5	5	1	0	1
74	75	5.6250000000000036	1.7568925399571422	0	0	1
64	74	1.8749999999999964	1.7568925399571425	0	0	1
78	79	95.069312791074211	20	0	0	1
70	80	7.5	5	1	0	1
75	82	5.6249999999999929	1.7568925399571425	0	0	1
82	83	1.875	1.7568925399571422	0	0	1
86	87	95.069312791073799	20	0	0	1
80	89	7.5000000000000071	5	1	0	1
93	94	5.6249999999999929	1.756892539957142	0	0	1
83	93	1.8750000000000142	1.7568925399571425	0	0	1
97	98	95.069312791074324	20	0	0	1
89	99	7.5	5	1	0	1
94	101	5.625	1.7568925399571422	0	0	1
101	102	1.8749999999999929	1.7568925399571422	0	0	1
105	106	95.069312791074253	20	0	0	1
99	108	7.4999999999999929	5	1	0	1
112	113	5.6250000000000071	1.7568925399571418	0	0	1
102	112	1.875	1.7568925399571422	0	0	1
116	117	95.069312791074083	20	0	0	1
108	118	7.5000000000000071	5	1	0	1
113	120	5.6250000000000142	1.7568925399571422	0	0	1
120	121	1.8749999999999858	1.7568925399571425	0	0	1
124	125	95.069312791074182	20	0	0	1
118	127	7.5	5	1	0	1
131	132	5.625	1.7568925399571422	0	0	1
121	131	1.875	1.7568925399571422	0	0	1
135	136	95.069312791074623	20	0	0	1
127	137	7.5000000000000142	5	1	0	1
139	140	90	0.5	0	0	1
141	143	7.5	0.5	7	0	20
143	142	82.5	0.5	0	0	20
142	144	7.5	0.5	7	0	20
[NumHoles] = 0
[NumBlockLabels] = 35
20.30404762781464	31.613052443500017	5	5	0	33.990032922042936	2	1	0
10.840335985914132	35.973970458937984	6	5	0	24.805480587507112	2	1	0
2.3244941817933373	38.165204575229254	7	5	0	21.126590364651516	2	1	0
31.613052443500024	20.304047627814633	8	5	0	56.009967077957036	2	1	0
35.973970458937991	10.840335985914127	9	5	0	65.194519412492866	2	1	0
38.165204575229254	2.3244941817933302	10	5	0	68.873409635348466	2	1	0
12.000442218624508	12.000442218624507	1	5	0	0	22	1	0
5.9295104311935996	5.9295104311935987	1	5	0	0	2	1	0
41.129086954237025	0	4	5	0	0	1	1	0
39.727647300786337	10.64499101143417	4	5	0	0	1	1	0
35.618834136828411	20.564543477118509	4	5	0	0	1	1	0
29.082656289352169	29.082656289352162	4	5	0	0	1	1	0
20.564543477118516	35.618834136828404	4	5	0	0	1	1	0
10.644991011434179	39.72764730078633	4	5	0	0	1	1	0
45.889481607574162	0	2	5	1	0	1	1	0
53.599543477118516	0	2	5	1	0	1	1	0
44.325835439773073	11.877071809922032	2	5	1	0	1	1	0
51.773183321852542	13.872582660678859	2	5	1	0	1	1	0
39.741456838657989	22.944740803787077	2	5	6	0	1	1	0
46.41856628243314	26.799771738559254	2	5	6	0	1	1	0
32.448763629851044	32.448763629851037	2	5	6	0	1	1	0
37.900600661173684	37.900600661173677	2	5	6	0	1	1	0
22.944740803787084	39.741456838657982	2	5	2	0	1	1	0
26.799771738559265	46.418566282433133	2	5	2	0	1	1	0
11.877071809922043	44.325835439773073	2	5	2	0	1	1	0
13.872582660678871	51.773183321852535	2	5	2	0	1	1	0
62.567500000000003	0	1	5	0	0	12	1	0
60.435564136341284	16.193660604451967	1	5	0	0	12	1	0
54.18504445128287	31.283749999999998	1	5	0	0	12	1	0
44.241903531889314	44.241903531889307	1	5	0	0	12	1	0
31.283750000000008	54.185044451282863	1	5	0	0	12	1	0
16.193660604451981	60.435564136341277	1	5	0	0	12	1	0
28.792798874265227	28.792798874265223	4	0.5	0	0	1	1	0
28.727980752656464	28.72798075265646	4	0.5	0	0	1	1	0
28.663162631047697	28.663162631047694	4	0.5	0	0	2	1	0
