[Format]      =  4.0
[Frequency]   =  0
[Precision]   =  1e-008
[MinAngle]    =  15
[Depth]       =  101
[LengthUnits] =  millimeters
[ProblemType] =  planar
[Coordinates] =  cartesian
[ACSolver]    =  0
[PrevSoln]    =  ""
[Comment]     =  "Add comments here."
[PointProps]   = 0
[BdryProps]   = 9
  <BeginBdry>
    <BdryName> = "A=0"
    <BdryType> = 0
    <A_0> = 0
    <A_1> = 0
    <A_2> = 0
    <Phi> = 0
    <c0> = 0
    <c0i> = 0
    <c1> = 0
    <c1i> = 0
    <Mu_ssd> = 0
    <Sigma_ssd> = 0
  <EndBdry>
  <BeginBdry>
    <BdryName> = "APr1"
    <BdryType> = 5
    <A_0> = 0
    <A_1> = 0
    <A_2> = 0
    <Phi> = 0
    <c0> = 0
    <c0i> = 0
    <c1> = 0
    <c1i> = 0
    <Mu_ssd> = 0
    <Sigma_ssd> = 0
  <EndBdry>
  <BeginBdry>
    <BdryName> = "APr2"
    <BdryType> = 5
    <A_0> = 0
    <A_1> = 0
    <A_2> = 0
    <Phi> = 0
    <c0> = 0
    <c0i> = 0
    <c1> = 0
    <c1i> = 0
    <Mu_ssd> = 0
    <Sigma_ssd> = 0
  <EndBdry>
  <BeginBdry>
    <BdryName> = "APg1"
    <BdryType> = 5
    <A_0> = 0
    <A_1> = 0
    <A_2> = 0
    <Phi> = 0
    <c0> = 0
    <c0i> = 0
    <c1> = 0
    <c1i> = 0
    <Mu_ssd> = 0
    <Sigma_ssd> = 0
  <EndBdry>
  <BeginBdry>
    <BdryName> = "APg2"
    <BdryType> = 5
    <A_0> = 0
    <A_1> = 0
    <A_2> = 0
    <Phi> = 0
    <c0> = 0
    <c0i> = 0
    <c1> = 0
    <c1i> = 0
    <Mu_ssd> = 0
    <Sigma_ssd> = 0
  <EndBdry>
  <BeginBdry>
    <BdryName> = "APg3"
    <BdryType> = 5
    <A_0> = 0
    <A_1> = 0
    <A_2> = 0
    <Phi> = 0
    <c0> = 0
    <c0i> = 0
    <c1> = 0
    <c1i> = 0
    <Mu_ssd> = 0
    <Sigma_ssd> = 0
  <EndBdry>
  <BeginBdry>
    <BdryName> = "APmove"
    <BdryType> = 5
    <A_0> = 0
    <A_1> = 0
    <A_2> = 0
    <Phi> = 0
    <c0> = 0
    <c0i> = 0
    <c1> = 0
    <c1i> = 0
    <Mu_ssd> = 0
    <Sigma_ssd> = 0
  <EndBdry>
  <BeginBdry>
    <BdryName> = "APs1"
    <BdryType> = 5
    <A_0> = 0
    <A_1> = 0
    <A_2> = 0
    <Phi> = 0
    <c0> = 0
    <c0i> = 0
    <c1> = 0
    <c1i> = 0
    <Mu_ssd> = 0
    <Sigma_ssd> = 0
  <EndBdry>
  <BeginBdry>
    <BdryName> = "APs2"
    <BdryType> = 5
    <A_0> = 0
    <A_1> = 0
    <A_2> = 0
    <Phi> = 0
    <c0> = 0
    <c0i> = 0
    <c1> = 0
    <c1i> = 0
    <Mu_ssd> = 0
    <Sigma_ssd> = 0
  <EndBdry>
[BlockProps]  = 10
  <BeginBlock>
    <BlockName> = "M530-65A-OK"
    <Mu_x> = 1
    <Mu_y> = 1
    <H_c> = 0
    <H_cAngle> = 0
    <J_re> = 0
    <J_im> = 0
    <Sigma> = 0
    <d_lam> = 0
    <Phi_h> = 0
    <Phi_hx> = 0
    <Phi_hy> = 0
    <LamType> = 0
    <LamFill> = 1
    <NStrands> = 0
    <WireD> = 0
    <BHPoints> = 199
      0	0
      0.018848	12.326973000000001
      0.038573999999999997	22.163343000000001
      0.059312999999999998	30.264441000000001
      0.081240999999999994	37.121026999999998
      0.104587	43.070056000000001
      0.12967000000000001	48.356479
      0.156946	53.171472999999999
      0.187116	57.680774999999997
      0.221361	62.054786999999997
      0.26198100000000002	66.524258000000003
      0.314919	71.574237999999994
      0.442722	82.040378000000004
      0.57165600000000005	92.228953000000004
      0.62506200000000001	96.637904000000006
      0.66604200000000002	100.157055
      0.70059000000000005	103.243889
      0.73102699999999998	106.07473
      0.75854500000000002	108.74006199999999
      0.78385000000000005	111.294023
      0.80740299999999998	113.77241100000001
      0.82952400000000004	116.200692
      0.85044799999999998	118.598054
      0.87034800000000001	120.97966099999999
      0.88936300000000001	123.358001
      0.90760099999999999	125.743736
      0.925149	128.146277
      0.94208199999999997	130.574173
      0.95845899999999995	133.03539799999999
      0.97433099999999995	135.53756799999999
      0.98974300000000004	138.088109
      1.0047330000000001	140.69439700000001
      1.019333	143.36387099999999
      1.0335719999999999	146.10414599999999
      1.047477	148.923102
      1.0610679999999999	151.82898499999999
      1.074368	154.830499
      1.0873930000000001	157.93690100000001
      1.10016	161.158107
      1.1126830000000001	164.50479999999999
      1.1249769999999999	167.98855499999999
      1.137054	171.62196900000001
      1.1489229999999999	175.41881900000001
      1.1605970000000001	179.394229
      1.1720839999999999	183.56486799999999
      1.183392	187.94917699999999
      1.194531	192.56763000000001
      1.2055070000000001	197.44303199999999
      1.2163269999999999	202.600876
      1.226998	208.069751
      1.237525	213.881823
      1.2479150000000001	220.073407
      1.258173	226.685632
      1.268303	233.76522800000001
      1.278311	241.36546999999999
      1.2882	249.547281
      1.297974	258.38055000000003
      1.307639	267.945695
      1.317196	278.33551
      1.3266500000000001	289.657352
      1.336004	302.03570000000002
      1.345261	315.615139
      1.3544240000000001	330.56378699999999
      1.363496	347.07715100000001
      1.372479	365.38233400000001
      1.3813770000000001	385.74240600000002
      1.390191	408.46058799999997
      1.3989229999999999	433.88362499999999
      1.4075770000000001	462.40341799999999
      1.416153	494.45556900000003
      1.424655	530.51313400000004
      1.433084	571.07376399999998
      1.4414419999999999	616.63877300000001
      1.44973	667.683943
      1.457951	724.6241
      1.466105	787.77634999999998
      1.4741949999999999	857.32916
      1.4822219999999999	933.32478600000002
      1.4901880000000001	1015.660001
      1.498094	1104.1052070000001
      1.5059400000000001	1198.337168
      1.51373	1297.9777180000001
      1.521463	1402.631005
      1.5291399999999999	1511.9141030000001
      1.5367649999999999	1625.4788289999999
      1.5443359999999999	1743.0249819999999
      1.5518559999999999	1864.306583
      1.5593250000000001	1989.1331339999999
      1.5667439999999999	2117.3677389999998
      1.5741149999999999	2248.9235370000001
      1.5814379999999999	2383.7594840000002
      1.588714	2521.8761
      1.595944	2663.3115870000001
      1.603129	2808.1384779999998
      1.6102700000000001	2956.460916
      1.6173679999999999	3108.4125450000001
      1.624423	3264.1550130000001
      1.6314360000000001	3423.8770279999999
      1.6384080000000001	3587.7939299999998
      1.64534	3756.1477399999999
      1.6522319999999999	3929.2076630000001
      1.659084	4107.2710040000002
      1.665899	4290.6645090000002
      1.6726749999999999	4479.7461000000003
      1.6794150000000001	4674.9070380000003
      1.686118	4876.5745010000001
      1.692785	5085.214626
      1.699417	5301.3360259999999
      1.7060139999999999	5525.493837
      1.7125760000000001	5758.2943370000003
      1.7191050000000001	6000.4002049999999
      1.7256009999999999	6252.5364829999999
      1.732064	6515.4973220000002
      1.738494	6790.15362
      1.744893	7077.4616260000003
      1.751261	7378.4726540000001
      1.757598	7694.3440220000002
      1.7639039999999999	8026.3513469999998
      1.7701800000000001	8375.9023460000008
      1.776427	8744.552291
      1.782645	9134.0212510000001
      1.788834	9546.2132579999998
      1.7949949999999999	9983.2374779999991
      1.8011280000000001	10447.43145
      1.8072330000000001	10941.38629
      1.8133109999999999	11467.973819999999
      1.8193619999999999	12030.37499
      1.8253870000000001	12632.10929
      1.831385	13277.063829999999
      1.837358	13969.52079
      1.843305	14714.181049999999
      1.8492280000000001	15516.181070000001
      1.8551249999999999	16381.09935
      1.8609979999999999	17314.947639999999
      1.866846	18324.141339999998
      1.872671	19415.442930000001
      1.8784719999999999	20595.871869999999
      1.88425	21872.575840000001
      1.890004	23252.659780000002
      1.8957360000000001	24742.973529999999
      1.9014450000000001	26349.86418
      1.907133	28078.906019999999
      1.912798	29934.628089999998
      1.9184410000000001	31920.26454
      1.9240630000000001	34037.555240000002
      1.9296629999999999	36286.621249999997
      1.935243	38665.931929999999
      1.9408019999999999	41172.369030000002
      1.94634	43801.379809999999
      1.9518580000000001	46547.200389999998
      1.957355	49403.123290000003
      1.962833	52361.781179999998
      1.9682919999999999	55415.421999999999
      1.97373	58556.156179999998
      1.97915	61776.164400000001
      1.98455	65067.860919999999
      1.989932	68424.013019999999
      1.995295	71837.820730000007
      2.0006390000000001	75302.963180000006
      2.0059659999999999	78813.618239999996
      2.0112739999999998	82364.46213
      2.0165639999999998	85950.654729999995
      2.021836	89567.815289999999
      2.027091	93211.992480000001
      2.0323289999999998	96879.631450000001
      2.0375489999999998	100567.53999999999
      2.0427529999999998	104272.8551
      2.047939	107993.01149999999
      2.0531090000000001	111725.7111
      2.058262	115468.8958
      2.063399	119220.7224
      2.0685199999999999	122979.53909999999
      2.0736240000000001	126743.8655
      2.078713	130512.374
      2.0837859999999999	134283.8731
      2.0888429999999998	138057.29300000001
      2.0938850000000002	141831.67240000001
      2.0989110000000002	145606.147
      2.1039219999999998	149379.93890000001
      2.1089190000000002	153152.34830000001
      2.1139000000000001	156922.74419999999
      2.1188660000000001	160690.55840000001
      2.123818	164455.2782
      2.128755	168216.44140000001
      2.1336780000000002	171973.63080000001
      2.1385860000000001	175726.46979999999
      2.1434799999999998	179474.6188
      2.148361	183217.77100000001
      2.1532269999999998	186955.64970000001
      2.1580789999999999	190688.00520000001
      2.1629179999999999	194414.61249999999
      2.1677430000000002	198135.26860000001
      2.172555	201849.79079999999
      2.1773539999999998	205558.0148
      2.1821389999999998	209259.79310000001
      2.1869109999999998	212954.99309999999
      2.1916699999999998	216643.4963
      2.1964160000000001	220325.1967
      2.201149	224000
  <EndBlock>
  <BeginBlock>
    <BlockName> = "Copper"
    <Mu_x> = 1
    <Mu_y> = 1
    <H_c> = 0
    <H_cAngle> = 0
    <J_re> = 0
    <J_im> = 0
    <Sigma> = 58
    <d_lam> = 0
    <Phi_h> = 0
    <Phi_hx> = 0
    <Phi_hy> = 0
    <LamType> = 0
    <LamFill> = 1
    <NStrands> = 0
    <WireD> = 0
    <BHPoints> = 0
  <EndBlock>
  <BeginBlock>
    <BlockName> = "Air"
    <Mu_x> = 1
    <Mu_y> = 1
    <H_c> = 0
    <H_cAngle> = 0
    <J_re> = 0
    <J_im> = 0
    <Sigma> = 0
    <d_lam> = 0
    <Phi_h> = 0
    <Phi_hx> = 0
    <Phi_hy> = 0
    <LamType> = 0
    <LamFill> = 1
    <NStrands> = 0
    <WireD> = 0
    <BHPoints> = 0
  <EndBlock>
  <BeginBlock>
    <BlockName> = "Air"
    <Mu_x> = 1
    <Mu_y> = 1
    <H_c> = 0
    <H_cAngle> = 0
    <J_re> = 0
    <J_im> = 0
    <Sigma> = 0
    <d_lam> = 0
    <Phi_h> = 0
    <Phi_hx> = 0
    <Phi_hy> = 0
    <LamType> = 0
    <LamFill> = 1
    <NStrands> = 0
    <WireD> = 0
    <BHPoints> = 0
  <EndBlock>
  <BeginBlock>
    <BlockName> = "Air_1"
    <Mu_x> = 1
    <Mu_y> = 1
    <H_c> = 0
    <H_cAngle> = 0
    <J_re> = 0
    <J_im> = 0
    <Sigma> = 0
    <d_lam> = 0
    <Phi_h> = 0
    <Phi_hx> = 0
    <Phi_hy> = 0
    <LamType> = 0
    <LamFill> = 1
    <NStrands> = 0
    <WireD> = 0
    <BHPoints> = 0
  <EndBlock>
  <BeginBlock>
    <BlockName> = "Air_2"
    <Mu_x> = 1
    <Mu_y> = 1
    <H_c> = 0
    <H_cAngle> = 0
    <J_re> = 0
    <J_im> = 0
    <Sigma> = 0
    <d_lam> = 0
    <Phi_h> = 0
    <Phi_hx> = 0
    <Phi_hy> = 0
    <LamType> = 0
    <LamFill> = 1
    <NStrands> = 0
    <WireD> = 0
    <BHPoints> = 0
  <EndBlock>
  <BeginBlock>
    <BlockName> = "Air_3"
    <Mu_x> = 1
    <Mu_y> = 1
    <H_c> = 0
    <H_cAngle> = 0
    <J_re> = 0
    <J_im> = 0
    <Sigma> = 0
    <d_lam> = 0
    <Phi_h> = 0
    <Phi_hx> = 0
    <Phi_hy> = 0
    <LamType> = 0
    <LamFill> = 1
    <NStrands> = 0
    <WireD> = 0
    <BHPoints> = 0
  <EndBlock>
  <BeginBlock>
    <BlockName> = "Air_4"
    <Mu_x> = 1
    <Mu_y> = 1
    <H_c> = 0
    <H_cAngle> = 0
    <J_re> = 0
    <J_im> = 0
    <Sigma> = 0
    <d_lam> = 0
    <Phi_h> = 0
    <Phi_hx> = 0
    <Phi_hy> = 0
    <LamType> = 0
    <LamFill> = 1
    <NStrands> = 0
    <WireD> = 0
    <BHPoints> = 0
  <EndBlock>
  <BeginBlock>
    <BlockName> = "Air_5"
    <Mu_x> = 1
    <Mu_y> = 1
    <H_c> = 0
    <H_cAngle> = 0
    <J_re> = 0
    <J_im> = 0
    <Sigma> = 0
    <d_lam> = 0
    <Phi_h> = 0
    <Phi_hx> = 0
    <Phi_hy> = 0
    <LamType> = 0
    <LamFill> = 1
    <NStrands> = 0
    <WireD> = 0
    <BHPoints> = 0
  <EndBlock>
  <BeginBlock>
    <BlockName> = "Air_6"
    <Mu_x> = 1
    <Mu_y> = 1
    <H_c> = 0
    <H_cAngle> = 0
    <J_re> = 0
    <J_im> = 0
    <Sigma> = 0
    <d_lam> = 0
    <Phi_h> = 0
    <Phi_hx> = 0
    <Phi_hy> = 0
    <LamType> = 0
    <LamFill> = 1
    <NStrands> = 0
    <WireD> = 0
    <BHPoints> = 0
  <EndBlock>
[CircuitProps]  = 6
  <BeginCircuit>
    <CircuitName> = "fase1"
    <TotalAmps_re> = 0
    <TotalAmps_im> = 0
    <CircuitType> = 1
  <EndCircuit>
  <BeginCircuit>
    <CircuitName> = "fase2"
    <TotalAmps_re> = 0
    <TotalAmps_im> = 0
    <CircuitType> = 1
  <EndCircuit>
  <BeginCircuit>
    <CircuitName> = "fase3"
    <TotalAmps_re> = 0
    <TotalAmps_im> = 0
    <CircuitType> = 1
  <EndCircuit>
  <BeginCircuit>
    <CircuitName> = "fase1n"
    <TotalAmps_re> = 0
    <TotalAmps_im> = 0
    <CircuitType> = 1
  <EndCircuit>
  <BeginCircuit>
    <CircuitName> = "fase2n"
    <TotalAmps_re> = 0
    <TotalAmps_im> = 0
    <CircuitType> = 1
  <EndCircuit>
  <BeginCircuit>
    <CircuitName> = "fase3n"
    <TotalAmps_re> = 0
    <TotalAmps_im> = 0
    <CircuitType> = 1
  <EndCircuit>
[NumPoints] = 151
26.035799672476553	26.03579967247655	0	2
23.134791873073809	23.134791873073805	0	2
18.516096076220226	35.625506117053014	0	2
16.75114957457248	34.210152475300298	0	2
21.837824830924372	32.1132635019936	0	2
21.08266490407588	21.082664904075877	0	2
18.181657104673135	18.181657104673135	0	2
11.031737779237545	38.604705173982914	0	2
9.1180320656817813	36.98392098491469	0	2
13.405585014187601	35.952717481815782	0	2
15.576847858262887	15.576847858262886	0	2
12.675840058860144	12.675840058860143	0	2
3.1850168798321299	40.023470207806625	0	2
1.2075266517779824	38.078689478650787	0	2
5.334723869526723	37.86653529122944	0	2
34.210152475300298	16.751149574572473	0	2
35.625506117053021	18.516096076220222	0	2
32.113263501993607	21.837824830924369	0	2
36.98392098491469	9.1180320656817759	0	2
38.604705173982914	11.03173777923754	0	2
35.952717481815782	13.405585014187595	0	2
38.078689478650787	1.2075266517779752	0	2
40.023470207806625	3.1850168798321228	0	2
37.86653529122944	5.3347238695267158	0	2
40.549999999999997	0	0	2
3.5527136788005009e-015	40.549999999999997	0	2
16.789999999999999	0	0	2
3.5527136788005009e-015	16.789999999999999	0	2
0	0	0	2
40.698811559394912	-5.3581001906331167	0	1
41.028021315904809	-1.3431183498339105	0	1
41.049999999999997	0	0	1
41.778021315904809	-1.3431183498339105	0	1
42.512724235696204	-2.918693845845139	0	1
56.567938775009672	-4.7690979440724366	0	1
57.697562153149576	-3.8201361744693982	0	1
57.859999999999999	0	0	1
66.922528142732205	-8.8105179748534805	0	1
67.5	0	0	1
49.819010657952404	-3.8805847014240467	0	1
49.819010657952404	0	0	1
41.778021315904809	0	0	1
41.028021315904809	1.3431183498339105	0	1
40.698811559394912	5.3581001906331167	0	1
41.778021315904809	1.3431183498339105	0	1
42.512724235696204	2.918693845845139	0	1
57.697562153149576	3.8201361744693982	0	1
56.567938775009672	4.7690979440724366	0	1
66.922528142732205	8.8105179748534805	0	1
49.819010657952404	3.8805847014240467	0	1
39.977649999334545	9.3214805975610187	0	1
39.651255169166248	10.624521801458476	0	1
40.702094369051352	9.5155948813879085	0	1
41.819551839292401	8.183860926656898	0	1
55.874766378605862	10.034265024884196	0	1
56.720289394483643	11.2432597503604	0	1
55.888468309085489	14.97526994963185	0	1
65.19999327451211	17.47028554442015	0	1
49.125838261548601	9.1457517822358056	0	1
48.121469034686577	12.894108766443544	0	1
40.354469760287664	10.812947583255239	0	1
39.282400781807169	11.91618600129568	0	1
37.925254809588317	15.709154898586931	0	1
40.006845151523976	12.11030028512257	0	1
40.308724731035909	13.822344456122465	0	1
54.742841400808118	18.623196132082626	0	1
53.40609962683542	19.247454769447526	0	1
62.361868444511856	25.831131684643559	0	1
47.117099807824552	16.642465750651283	0	1
36.202867901499978	19.350836046707201	0	1
35.550342825351208	20.524999999999995	0	1
36.852386954338307	19.725836046707201	0	1
38.276446095117869	18.728699101476906	0	1
51.37382099091738	24.153809414801962	0	1
51.877622648293809	25.540446103568382	0	1
50.108229862967626	28.929999999999996	0	1
58.45671475544961	33.749999999999993	0	1
45.084821171906505	21.548820396005723	0	1
43.144528821194484	24.909505328976199	0	1
36.18082777942135	20.889010657952401	0	1
34.859749551666063	21.677185269197601	0	1
32.567154618955207	24.989656660807974	0	1
35.509268604504392	22.052185269197601	0	1
35.357752249272728	23.784025134219291	0	1
48.057486473824412	32.157116049581184	0	1
46.604723046844938	32.414129360207703	0	1
53.551350469658381	41.091396458088639	0	1
41.204236470482464	28.270190261946674	0	1
29.960920184246156	28.061463998038864	0	1
29.026733367707777	29.02673336770777	0	1
30.491250270136067	28.591794083928772	0	1
32.124863804379018	27.997207383169929	0	1
43.371834601951221	36.62731160915834	0	1
43.499581650447709	38.09709326240101	0	1
40.913198359453645	40.913198359453638	0	1
47.72970773009196	47.729707730091953	0	1
37.971348025588746	32.483372510897311	0	1
35.227360268243032	35.227360268243025	0	1
29.541522177032423	29.541522177032416	0	1
28.061463998038867	29.960920184246152	0	1
24.989656660807981	32.5671546189552	0	1
28.591794083928779	30.49125027013606	0	1
27.997207383169933	32.124863804379011	0	1
38.097093262401017	43.499581650447702	0	1
36.62731160915834	43.371834601951221	0	1
41.091396458088653	53.551350469658374	0	1
32.483372510897318	37.971348025588739	0	1
21.677185269197608	34.859749551666056	0	1
20.525000000000002	35.550342825351201	0	1
22.052185269197608	35.509268604504385	0	1
23.784025134219299	35.357752249272721	0	1
32.41412936020771	46.604723046844931	0	1
32.157116049581198	48.057486473824405	0	1
28.930000000000007	50.108229862967619	0	1
33.750000000000007	58.456714755449603	0	1
28.270190261946684	41.204236470482464	0	1
24.909505328976209	43.144528821194484	0	1
20.889010657952408	36.180827779421342	0	1
19.350836046707208	36.202867901499971	0	1
15.709154898586938	37.925254809588317	0	1
19.725836046707208	36.8523869543383	0	1
18.728699101476913	38.276446095117862	0	1
25.540446103568392	51.877622648293801	0	1
24.153809414801977	51.373820990917373	0	1
25.831131684643569	62.361868444511856	0	1
21.548820396005734	45.084821171906505	0	1
11.916186001295689	39.282400781807169	0	1
10.624521801458485	39.651255169166248	0	1
12.110300285122579	40.006845151523969	0	1
13.822344456122476	40.308724731035902	0	1
19.247454769447536	53.40609962683542	0	1
18.62319613208264	54.742841400808103	0	1
14.975269949631862	55.888468309085482	0	1
17.470285544420165	65.19999327451211	0	1
16.642465750651294	47.117099807824545	0	1
12.894108766443555	48.121469034686569	0	1
10.812947583255248	40.354469760287657	0	1
9.3214805975610275	39.977649999334545	0	1
5.3581001906331256	40.698811559394912	0	1
9.5155948813879174	40.702094369051345	0	1
8.1838609266569087	41.819551839292394	0	1
11.243259750360412	56.720289394483643	0	1
10.034265024884208	55.874766378605862	0	1
8.8105179748534983	66.922528142732205	0	1
9.1457517822358163	49.125838261548594	0	1
40.533570749165946	-5.3363458252631082	0	1
5.3363458252631144	40.533570749165946	0	1
40.368329938936974	-5.3145914598930988	0	1
5.314591459893105	40.368329938936974	0	1
40.716666666666661	0	0	2
2.493176775264153e-015	40.716666666666661	0	2
[NumSegments] = 104
0	1	2.5	0	0	2
5	6	2.5	0	0	2
10	11	2.5	0	0	2
24	26	-1	3	0	2
26	28	-1	2	0	2
25	27	-1	3	0	2
27	28	-1	2	0	2
32	30	2.5	0	0	1
33	32	2.5	0	0	1
36	35	2.5	0	0	1
37	29	-1	8	0	1
39	40	2.5	0	0	1
41	32	2.5	0	0	1
39	33	2.5	0	0	1
34	39	2.5	0	0	1
44	42	2.5	0	0	1
45	44	2.5	0	0	1
36	46	2.5	0	0	1
48	43	2.5	0	0	1
49	40	2.5	0	0	1
41	44	2.5	0	0	1
49	45	2.5	0	0	1
47	49	2.5	0	0	1
52	50	2.5	0	0	1
53	52	2.5	0	0	1
56	55	2.5	0	0	1
58	59	2.5	0	0	1
60	52	2.5	0	0	1
58	53	2.5	0	0	1
54	58	2.5	0	0	1
63	61	2.5	0	0	1
64	63	2.5	0	0	1
56	65	2.5	0	0	1
67	62	2.5	0	0	1
68	59	2.5	0	0	1
60	63	2.5	0	0	1
68	64	2.5	0	0	1
66	68	2.5	0	0	1
71	69	2.5	0	0	1
72	71	2.5	0	0	1
75	74	2.5	0	0	1
77	78	2.5	0	0	1
79	71	2.5	0	0	1
77	72	2.5	0	0	1
73	77	2.5	0	0	1
82	80	2.5	0	0	1
83	82	2.5	0	0	1
75	84	2.5	0	0	1
86	81	2.5	0	0	1
87	78	2.5	0	0	1
79	82	2.5	0	0	1
87	83	2.5	0	0	1
85	87	2.5	0	0	1
90	88	2.5	0	0	1
91	90	2.5	0	0	1
94	93	2.5	0	0	1
96	97	2.5	0	0	1
98	90	2.5	0	0	1
96	91	2.5	0	0	1
92	96	2.5	0	0	1
101	99	2.5	0	0	1
102	101	2.5	0	0	1
94	103	2.5	0	0	1
105	100	2.5	0	0	1
106	97	2.5	0	0	1
98	101	2.5	0	0	1
106	102	2.5	0	0	1
104	106	2.5	0	0	1
109	107	2.5	0	0	1
110	109	2.5	0	0	1
113	112	2.5	0	0	1
115	116	2.5	0	0	1
117	109	2.5	0	0	1
115	110	2.5	0	0	1
111	115	2.5	0	0	1
120	118	2.5	0	0	1
121	120	2.5	0	0	1
113	122	2.5	0	0	1
124	119	2.5	0	0	1
125	116	2.5	0	0	1
117	120	2.5	0	0	1
125	121	2.5	0	0	1
123	125	2.5	0	0	1
128	126	2.5	0	0	1
129	128	2.5	0	0	1
132	131	2.5	0	0	1
134	135	2.5	0	0	1
136	128	2.5	0	0	1
134	129	2.5	0	0	1
130	134	2.5	0	0	1
139	137	2.5	0	0	1
140	139	2.5	0	0	1
132	141	2.5	0	0	1
143	138	-1	8	0	1
144	135	2.5	0	0	1
136	139	2.5	0	0	1
144	140	2.5	0	0	1
142	144	2.5	0	0	1
145	29	0.25	6	0	1
146	138	0.25	6	0	1
145	147	0.25	5	0	1
146	148	0.25	5	0	1
24	149	0.25	4	0	2
25	150	0.25	4	0	2
[NumArcSegments] = 78
2	3	132.37960323116528	20	0	0	2
4	2	38.268045695281657	4.8560916273958972	0	0	2
3	1	30.08322195506787	1.4539818420411761	0	0	2
4	0	20.730870881514335	1.7445946604375682	0	0	2
7	8	112.42064772111775	20	0	0	2
9	7	64.439487604411369	10.728507643028472	0	0	2
8	6	38.527248232680932	1.1320193234881375	0	0	2
9	5	35.387383558209535	1.3007120012651421	0	0	2
12	13	98.144267797168084	19.509651197011728	0	0	2
14	12	81.092447443433826	15.288419152656283	0	0	2
13	11	41.405669091907185	0.90841827862752622	0	0	2
14	10	40.642384332509266	1.0139447454692547	0	0	2
15	16	132.37960323116528	20	0	0	2
16	17	38.268045695281657	4.856091627395891	0	0	2
1	15	30.083221955067842	1.4539818420411768	0	0	2
0	17	20.730870881514321	1.7445946604375688	0	0	2
18	19	112.42064772111777	20	0	0	2
19	20	64.439487604411354	10.728507643028593	0	0	2
6	18	38.527248232680918	1.1320193234881382	0	0	2
5	20	35.387383558209493	1.300712001265143	0	0	2
21	22	98.14426779716797	19.509651197012797	0	0	2
22	23	81.092447443433826	15.288419152656637	0	0	2
11	21	41.405669091907143	0.90841827862752611	0	0	2
10	23	40.642384332509238	1.0139447454692549	0	0	2
24	25	90	0.88310387658881517	0	0	2
26	27	89.999999999999986	2.132808945543565	0	0	2
29	30	5.6249999999999991	0.87234743473024234	0	0	1
30	31	1.8749999999999998	0.87234743473024257	0	0	1
34	35	95.065165362441206	20	0	0	1
37	38	7.4999999999999991	2.5	1	0	1
42	43	5.6249999999999991	0.87234743473024234	0	0	1
31	42	1.8749999999999998	0.87234743473024257	0	0	1
46	47	95.065165362441206	20	0	0	1
38	48	7.4999999999999991	2.5	1	0	1
43	50	5.6250000000000018	0.87234743473024245	0	0	1
50	51	1.8749999999999982	0.87234743473024257	0	0	1
54	55	95.065165362441689	20	0	0	1
48	57	7.4999999999999973	2.5	1	0	1
61	62	5.6249999999999964	0.87234743473024245	0	0	1
51	61	1.8750000000000018	0.87234743473024257	0	0	1
65	66	95.065165362441476	20	0	0	1
57	67	7.5000000000000018	2.5	1	0	1
62	69	5.625	0.87234743473024245	0	0	1
69	70	1.875	0.87234743473024245	0	0	1
73	74	95.065165362440609	20	0	0	1
67	76	7.5	2.5	1	0	1
80	81	5.6249999999999893	0.87234743473024268	0	0	1
70	80	1.8750000000000036	0.87234743473024268	0	0	1
84	85	95.065165362441263	20	0	0	1
76	86	7.5	2.5	1	0	1
81	88	5.6250000000000071	0.87234743473024257	0	0	1
88	89	1.8749999999999929	0.87234743473024257	0	0	1
92	93	95.06516536244186	20	0	0	1
86	95	7.5000000000000071	2.5	1	0	1
99	100	5.625	0.87234743473024245	0	0	1
89	99	1.8750000000000142	0.87234743473024257	0	0	1
103	104	95.065165362441803	20	0	0	1
95	105	7.5	2.5	1	0	1
100	107	5.6250000000000071	0.87234743473024268	0	0	1
107	108	1.8749999999999929	0.87234743473024257	0	0	1
111	112	95.065165362441221	20	0	0	1
105	114	7.4999999999999929	2.5	1	0	1
118	119	5.6250000000000071	0.87234743473024257	0	0	1
108	118	1.875	0.87234743473024257	0	0	1
122	123	95.065165362440553	20	0	0	1
114	124	7.5000000000000071	2.5	1	0	1
119	126	5.6250000000000142	0.87234743473024279	0	0	1
126	127	1.8749999999999858	0.87234743473024245	0	0	1
130	131	95.065165362440766	20	0	0	1
124	133	7.5	2.5	1	0	1
137	138	5.6250000000000142	0.87234743473024268	0	0	1
127	137	1.875	0.87234743473024257	0	0	1
141	142	95.065165362441192	20	0	0	1
133	143	7.5000000000000142	2.5	1	0	1
145	146	90	0.25	0	0	1
147	149	7.5	0.25	7	0	20
149	148	82.5	0.25	0	0	20
148	150	7.5	0.25	7	0	20
[NumHoles] = 0
[NumBlockLabels] = 35
19.294487202748428	33.161707988646953	5	2.5	0	31.392545970367181	2	1	0
11.261808539934693	36.468319233365236	6	2.5	0	24.309268672616959	2	1	0
3.2711252606523509	37.972612384940106	7	2.5	0	21.474921352759718	2	1	0
33.161707988646953	19.294487202748421	8	2.5	0	58.607454029632798	2	1	0
36.468319233365243	11.261808539934687	9	2.5	0	65.69073132738302	2	1	0
37.972612384940106	3.2711252606523438	10	2.5	0	68.52507864724025	2	1	0
12.274081457491139	12.274081457491137	1	2.5	0	0	22	1	0
5.9361614280610668	5.9361614280610659	1	2.5	0	0	2	1	0
41.414010657952403	0	4	2.5	0	0	1	1	0
40.00286246472696	10.718734692356858	4	2.5	0	0	1	1	0
35.865585302386279	20.707005328976198	4	2.5	0	0	1	1	0
29.284127772370098	29.284127772370095	4	2.5	0	0	1	1	0
20.707005328976205	35.865585302386272	4	2.5	0	0	1	1	0
10.718734692356866	40.002862464726952	4	2.5	0	0	1	1	0
46.165867446824308	0	2	2.5	1	0	1	1	0
53.839505328976202	0	2	2.5	1	0	1	1	0
44.592803659925373	11.948605728916615	2	2.5	1	0	1	1	0
52.004968671886033	13.934689358037698	2	2.5	1	0	1	1	0
39.980813996694899	23.08293372341215	2	2.5	6	0	1	1	0
46.626379342081052	26.919752664488097	2	2.5	6	0	1	1	0
32.644197931008755	32.644197931008748	2	2.5	6	0	1	1	0
38.070279313848339	38.070279313848332	2	2.5	6	0	1	1	0
23.082933723412157	39.980813996694891	2	2.5	2	0	1	1	0
26.919752664488108	46.626379342081052	2	2.5	2	0	1	1	0
11.948605728916625	44.592803659925366	2	2.5	2	0	1	1	0
13.934689358037708	52.004968671886026	2	2.5	2	0	1	1	0
62.68	0	1	2.5	0	0	1	1	0
60.544230791798803	16.222777747026001	1	2.5	0	0	1	1	0
54.282472309208615	31.339999999999996	1	2.5	0	0	1	1	0
44.321453044772802	44.321453044772795	1	2.5	0	0	1	1	0
31.340000000000007	54.282472309208607	1	2.5	0	0	1	1	0
16.222777747026015	60.544230791798796	1	2.5	0	0	1	1	0
28.967807802608895	28.967807802608892	4	0.25	0	0	1	1	0
28.849956672411139	28.849956672411135	4	0.25	0	0	1	1	0
28.732105542213382	28.732105542213379	4	0.25	0	0	2	1	0
