[Format]      =  4.0
[Frequency]   =  0
[Precision]   =  1e-008
[MinAngle]    =  15
[Depth]       =  101
[LengthUnits] =  millimeters
[ProblemType] =  planar
[Coordinates] =  cartesian
[ACSolver]    =  0
[Comment]     =  "Add comments here."
[PointProps]   = 0
[BdryProps]   = 9
  <BeginBdry>
    <BdryName> = "A=0"
    <BdryType> = 0
    <A_0> = 0
    <A_1> = 0
    <A_2> = 0
    <Phi> = 0
    <c0> = 0
    <c0i> = 0
    <c1> = 0
    <c1i> = 0
    <Mu_ssd> = 0
    <Sigma_ssd> = 0
  <EndBdry>
  <BeginBdry>
    <BdryName> = "APr1"
    <BdryType> = 5
    <A_0> = 0
    <A_1> = 0
    <A_2> = 0
    <Phi> = 0
    <c0> = 0
    <c0i> = 0
    <c1> = 0
    <c1i> = 0
    <Mu_ssd> = 0
    <Sigma_ssd> = 0
  <EndBdry>
  <BeginBdry>
    <BdryName> = "APr2"
    <BdryType> = 5
    <A_0> = 0
    <A_1> = 0
    <A_2> = 0
    <Phi> = 0
    <c0> = 0
    <c0i> = 0
    <c1> = 0
    <c1i> = 0
    <Mu_ssd> = 0
    <Sigma_ssd> = 0
  <EndBdry>
  <BeginBdry>
    <BdryName> = "APg1"
    <BdryType> = 5
    <A_0> = 0
    <A_1> = 0
    <A_2> = 0
    <Phi> = 0
    <c0> = 0
    <c0i> = 0
    <c1> = 0
    <c1i> = 0
    <Mu_ssd> = 0
    <Sigma_ssd> = 0
  <EndBdry>
  <BeginBdry>
    <BdryName> = "APg2"
    <BdryType> = 5
    <A_0> = 0
    <A_1> = 0
    <A_2> = 0
    <Phi> = 0
    <c0> = 0
    <c0i> = 0
    <c1> = 0
    <c1i> = 0
    <Mu_ssd> = 0
    <Sigma_ssd> = 0
  <EndBdry>
  <BeginBdry>
    <BdryName> = "APg3"
    <BdryType> = 5
    <A_0> = 0
    <A_1> = 0
    <A_2> = 0
    <Phi> = 0
    <c0> = 0
    <c0i> = 0
    <c1> = 0
    <c1i> = 0
    <Mu_ssd> = 0
    <Sigma_ssd> = 0
  <EndBdry>
  <BeginBdry>
    <BdryName> = "APmove"
    <BdryType> = 5
    <A_0> = 0
    <A_1> = 0
    <A_2> = 0
    <Phi> = 0
    <c0> = 0
    <c0i> = 0
    <c1> = 0
    <c1i> = 0
    <Mu_ssd> = 0
    <Sigma_ssd> = 0
  <EndBdry>
  <BeginBdry>
    <BdryName> = "APs1"
    <BdryType> = 5
    <A_0> = 0
    <A_1> = 0
    <A_2> = 0
    <Phi> = 0
    <c0> = 0
    <c0i> = 0
    <c1> = 0
    <c1i> = 0
    <Mu_ssd> = 0
    <Sigma_ssd> = 0
  <EndBdry>
  <BeginBdry>
    <BdryName> = "APs2"
    <BdryType> = 5
    <A_0> = 0
    <A_1> = 0
    <A_2> = 0
    <Phi> = 0
    <c0> = 0
    <c0i> = 0
    <c1> = 0
    <c1i> = 0
    <Mu_ssd> = 0
    <Sigma_ssd> = 0
  <EndBdry>
[BlockProps]  = 4
  <BeginBlock>
    <BlockName> = "M530-65A-OK"
    <Mu_x> = 1
    <Mu_y> = 1
    <H_c> = 0
    <H_cAngle> = 0
    <J_re> = 0
    <J_im> = 0
    <Sigma> = 0
    <d_lam> = 0
    <Phi_h> = 0
    <Phi_hx> = 0
    <Phi_hy> = 0
    <LamType> = 0
    <LamFill> = 1
    <NStrands> = 0
    <WireD> = 0
    <BHPoints> = 199
      0	0
      0.018848	12.326973000000001
      0.038573999999999997	22.163343000000001
      0.059312999999999998	30.264441000000001
      0.081240999999999994	37.121026999999998
      0.104587	43.070056000000001
      0.12967000000000001	48.356479
      0.156946	53.171472999999999
      0.187116	57.680774999999997
      0.221361	62.054786999999997
      0.26198100000000002	66.524258000000003
      0.314919	71.574237999999994
      0.442722	82.040378000000004
      0.57165600000000005	92.228953000000004
      0.62506200000000001	96.637904000000006
      0.66604200000000002	100.157055
      0.70059000000000005	103.243889
      0.73102699999999998	106.07473
      0.75854500000000002	108.74006199999999
      0.78385000000000005	111.294023
      0.80740299999999998	113.77241100000001
      0.82952400000000004	116.200692
      0.85044799999999998	118.598054
      0.87034800000000001	120.97966099999999
      0.88936300000000001	123.358001
      0.90760099999999999	125.743736
      0.925149	128.146277
      0.94208199999999997	130.574173
      0.95845899999999995	133.03539799999999
      0.97433099999999995	135.53756799999999
      0.98974300000000004	138.088109
      1.0047330000000001	140.69439700000001
      1.019333	143.36387099999999
      1.0335719999999999	146.10414599999999
      1.047477	148.923102
      1.0610679999999999	151.82898499999999
      1.074368	154.830499
      1.0873930000000001	157.93690100000001
      1.10016	161.158107
      1.1126830000000001	164.50479999999999
      1.1249769999999999	167.98855499999999
      1.137054	171.62196900000001
      1.1489229999999999	175.41881900000001
      1.1605970000000001	179.394229
      1.1720839999999999	183.56486799999999
      1.183392	187.94917699999999
      1.194531	192.56763000000001
      1.2055070000000001	197.44303199999999
      1.2163269999999999	202.600876
      1.226998	208.069751
      1.237525	213.881823
      1.2479150000000001	220.073407
      1.258173	226.685632
      1.268303	233.76522800000001
      1.278311	241.36546999999999
      1.2882	249.547281
      1.297974	258.38055000000003
      1.307639	267.945695
      1.317196	278.33551
      1.3266500000000001	289.657352
      1.336004	302.03570000000002
      1.345261	315.615139
      1.3544240000000001	330.56378699999999
      1.363496	347.07715100000001
      1.372479	365.38233400000001
      1.3813770000000001	385.74240600000002
      1.390191	408.46058799999997
      1.3989229999999999	433.88362499999999
      1.4075770000000001	462.40341799999999
      1.416153	494.45556900000003
      1.424655	530.51313400000004
      1.433084	571.07376399999998
      1.4414419999999999	616.63877300000001
      1.44973	667.683943
      1.457951	724.6241
      1.466105	787.77634999999998
      1.4741949999999999	857.32916
      1.4822219999999999	933.32478600000002
      1.4901880000000001	1015.660001
      1.498094	1104.1052070000001
      1.5059400000000001	1198.337168
      1.51373	1297.9777180000001
      1.521463	1402.631005
      1.5291399999999999	1511.9141030000001
      1.5367649999999999	1625.4788289999999
      1.5443359999999999	1743.0249819999999
      1.5518559999999999	1864.306583
      1.5593250000000001	1989.1331339999999
      1.5667439999999999	2117.3677389999998
      1.5741149999999999	2248.9235370000001
      1.5814379999999999	2383.7594840000002
      1.588714	2521.8761
      1.595944	2663.3115870000001
      1.603129	2808.1384779999998
      1.6102700000000001	2956.460916
      1.6173679999999999	3108.4125450000001
      1.624423	3264.1550130000001
      1.6314360000000001	3423.8770279999999
      1.6384080000000001	3587.7939299999998
      1.64534	3756.1477399999999
      1.6522319999999999	3929.2076630000001
      1.659084	4107.2710040000002
      1.665899	4290.6645090000002
      1.6726749999999999	4479.7461000000003
      1.6794150000000001	4674.9070380000003
      1.686118	4876.5745010000001
      1.692785	5085.214626
      1.699417	5301.3360259999999
      1.7060139999999999	5525.493837
      1.7125760000000001	5758.2943370000003
      1.7191050000000001	6000.4002049999999
      1.7256009999999999	6252.5364829999999
      1.732064	6515.4973220000002
      1.738494	6790.15362
      1.744893	7077.4616260000003
      1.751261	7378.4726540000001
      1.757598	7694.3440220000002
      1.7639039999999999	8026.3513469999998
      1.7701800000000001	8375.9023460000008
      1.776427	8744.552291
      1.782645	9134.0212510000001
      1.788834	9546.2132579999998
      1.7949949999999999	9983.2374779999991
      1.8011280000000001	10447.43145
      1.8072330000000001	10941.38629
      1.8133109999999999	11467.973819999999
      1.8193619999999999	12030.37499
      1.8253870000000001	12632.10929
      1.831385	13277.063829999999
      1.837358	13969.52079
      1.843305	14714.181049999999
      1.8492280000000001	15516.181070000001
      1.8551249999999999	16381.09935
      1.8609979999999999	17314.947639999999
      1.866846	18324.141339999998
      1.872671	19415.442930000001
      1.8784719999999999	20595.871869999999
      1.88425	21872.575840000001
      1.890004	23252.659780000002
      1.8957360000000001	24742.973529999999
      1.9014450000000001	26349.86418
      1.907133	28078.906019999999
      1.912798	29934.628089999998
      1.9184410000000001	31920.26454
      1.9240630000000001	34037.555240000002
      1.9296629999999999	36286.621249999997
      1.935243	38665.931929999999
      1.9408019999999999	41172.369030000002
      1.94634	43801.379809999999
      1.9518580000000001	46547.200389999998
      1.957355	49403.123290000003
      1.962833	52361.781179999998
      1.9682919999999999	55415.421999999999
      1.97373	58556.156179999998
      1.97915	61776.164400000001
      1.98455	65067.860919999999
      1.989932	68424.013019999999
      1.995295	71837.820730000007
      2.0006390000000001	75302.963180000006
      2.0059659999999999	78813.618239999996
      2.0112739999999998	82364.46213
      2.0165639999999998	85950.654729999995
      2.021836	89567.815289999999
      2.027091	93211.992480000001
      2.0323289999999998	96879.631450000001
      2.0375489999999998	100567.53999999999
      2.0427529999999998	104272.8551
      2.047939	107993.01149999999
      2.0531090000000001	111725.7111
      2.058262	115468.8958
      2.063399	119220.7224
      2.0685199999999999	122979.53909999999
      2.0736240000000001	126743.8655
      2.078713	130512.374
      2.0837859999999999	134283.8731
      2.0888429999999998	138057.29300000001
      2.0938850000000002	141831.67240000001
      2.0989110000000002	145606.147
      2.1039219999999998	149379.93890000001
      2.1089190000000002	153152.34830000001
      2.1139000000000001	156922.74419999999
      2.1188660000000001	160690.55840000001
      2.123818	164455.2782
      2.128755	168216.44140000001
      2.1336780000000002	171973.63080000001
      2.1385860000000001	175726.46979999999
      2.1434799999999998	179474.6188
      2.148361	183217.77100000001
      2.1532269999999998	186955.64970000001
      2.1580789999999999	190688.00520000001
      2.1629179999999999	194414.61249999999
      2.1677430000000002	198135.26860000001
      2.172555	201849.79079999999
      2.1773539999999998	205558.0148
      2.1821389999999998	209259.79310000001
      2.1869109999999998	212954.99309999999
      2.1916699999999998	216643.4963
      2.1964160000000001	220325.1967
      2.201149	224000
  <EndBlock>
  <BeginBlock>
    <BlockName> = "Copper"
    <Mu_x> = 1
    <Mu_y> = 1
    <H_c> = 0
    <H_cAngle> = 0
    <J_re> = 0
    <J_im> = 0
    <Sigma> = 58
    <d_lam> = 0
    <Phi_h> = 0
    <Phi_hx> = 0
    <Phi_hy> = 0
    <LamType> = 0
    <LamFill> = 1
    <NStrands> = 0
    <WireD> = 0
    <BHPoints> = 0
  <EndBlock>
  <BeginBlock>
    <BlockName> = "Air"
    <Mu_x> = 1
    <Mu_y> = 1
    <H_c> = 0
    <H_cAngle> = 0
    <J_re> = 0
    <J_im> = 0
    <Sigma> = 0
    <d_lam> = 0
    <Phi_h> = 0
    <Phi_hx> = 0
    <Phi_hy> = 0
    <LamType> = 0
    <LamFill> = 1
    <NStrands> = 0
    <WireD> = 0
    <BHPoints> = 0
  <EndBlock>
  <BeginBlock>
    <BlockName> = "Air"
    <Mu_x> = 1
    <Mu_y> = 1
    <H_c> = 0
    <H_cAngle> = 0
    <J_re> = 0
    <J_im> = 0
    <Sigma> = 0
    <d_lam> = 0
    <Phi_h> = 0
    <Phi_hx> = 0
    <Phi_hy> = 0
    <LamType> = 0
    <LamFill> = 1
    <NStrands> = 0
    <WireD> = 0
    <BHPoints> = 0
  <EndBlock>
[CircuitProps]  = 6
  <BeginCircuit>
    <CircuitName> = "fase1"
    <TotalAmps_re> = 0
    <TotalAmps_im> = 0
    <CircuitType> = 1
  <EndCircuit>
  <BeginCircuit>
    <CircuitName> = "fase2"
    <TotalAmps_re> = 0
    <TotalAmps_im> = 0
    <CircuitType> = 1
  <EndCircuit>
  <BeginCircuit>
    <CircuitName> = "fase3"
    <TotalAmps_re> = 0
    <TotalAmps_im> = 0
    <CircuitType> = 1
  <EndCircuit>
  <BeginCircuit>
    <CircuitName> = "fase1n"
    <TotalAmps_re> = 0
    <TotalAmps_im> = 0
    <CircuitType> = 1
  <EndCircuit>
  <BeginCircuit>
    <CircuitName> = "fase2n"
    <TotalAmps_re> = 0
    <TotalAmps_im> = 0
    <CircuitType> = 1
  <EndCircuit>
  <BeginCircuit>
    <CircuitName> = "fase3n"
    <TotalAmps_re> = 0
    <TotalAmps_im> = 0
    <CircuitType> = 1
  <EndCircuit>
[NumPoints] = 145
21.261559589494656	33.53002216347172	0	2
17.406306471409934	32.126912795001417	0	2
23.134791873073805	23.134791873073802	0	2
26.035799672476546	26.035799672476543	0	2
13.291748667550356	36.684510927320467	0	2
9.2297443241786272	36.108478620222755	0	2
18.181657104673139	18.181657104673135	0	2
21.082664904075884	21.08266490407588	0	2
5.3176933319815234	38.100260699707306	0	2
1.2249301976052749	37.815686578814685	0	2
12.675840058860144	12.675840058860143	0	2
15.576847858262887	15.576847858262886	0	2
32.126912795001424	17.40630647140993	0	2
33.530022163471727	21.261559589494652	0	2
36.108478620222762	9.2297443241786219	0	2
36.684510927320467	13.291748667550351	0	2
37.815686578814685	1.2249301976052678	0	2
38.100260699707306	5.3176933319815163	0	2
40.549999999999997	0	0	2
3.5527136788005009e-015	40.549999999999997	0	2
16.789999999999999	0	0	2
3.5527136788005009e-015	16.789999999999999	0	2
0	0	0	2
40.698811559394912	-5.3581001906331167	0	1
41.028021315904809	-1.3431183498339105	0	1
41.049999999999997	0	0	1
41.778021315904809	-1.3431183498339105	0	1
42.512711939461518	-2.9186674764847611	0	1
56.567940629444472	-4.7690734376830379	0	1
57.697564016602833	-3.8201114559946197	0	1
57.859999999999999	0	0	1
66.922528142732205	-8.8105179748534805	0	1
67.5	0	0	1
49.819010657952404	-3.8805599508936752	0	1
49.819010657952404	0	0	1
41.778021315904809	0	0	1
41.028021315904809	1.3431183498339105	0	1
40.698811559394912	5.3581001906331167	0	1
41.778021315904809	1.3431183498339105	0	1
42.512711939461518	2.9186674764847611	0	1
57.697564016602833	3.8201114559946197	0	1
56.567940629444472	4.7690734376830379	0	1
66.922528142732205	8.8105179748534805	0	1
49.819010657952404	3.8805599508936752	0	1
39.977649999334545	9.3214805975610187	0	1
39.651255169166248	10.624521801458476	0	1
40.702094369051352	9.5155948813879085	0	1
41.819533137149072	8.1838832150033891	0	1
55.874761827132026	10.034289176201668	0	1
56.720284796829233	11.243284108870768	0	1
55.888468309085489	14.97526994963185	0	1
65.19999327451211	17.47028554442015	0	1
49.125831855639959	9.1457756894123037	0	1
48.121469034686577	12.894108766443544	0	1
40.354469760287664	10.812947583255239	0	1
39.282400781807169	11.91618600129568	0	1
37.925254809588317	15.709154898586931	0	1
40.006845151523976	12.11030028512257	0	1
40.308719678677939	13.822315802776535	0	1
54.742849598377774	18.623172738166645	0	1
53.406107760802193	19.24743157805614	0	1
62.361868444511856	25.831131684643559	0	1
47.117106213733194	16.642441843474785	0	1
36.202867901499978	19.350836046707201	0	1
35.550342825351208	20.524999999999995	0	1
36.852386954338307	19.725836046707201	0	1
38.27642226158607	18.728715789895531	0	1
51.373810343710325	24.153831565175139	0	1
51.877611902854277	25.540468442122112	0	1
50.108229862967626	28.929999999999996	0	1
58.45671475544961	33.749999999999993	0	1
45.084808796641319	21.54884183059378	0	1
43.144528821194484	24.909505328976199	0	1
36.18082777942135	20.889010657952401	0	1
34.859749551666063	21.677185269197601	0	1
32.567154618955207	24.989656660807974	0	1
35.509268604504392	22.052185269197601	0	1
35.357754785101314	23.783996149565979	0	1
48.057500446859656	32.157095574480714	0	1
46.604736906027291	32.414109064269326	0	1
53.551350469658381	41.091396458088639	0	1
41.204248845747649	28.270168827358617	0	1
29.960920184246156	28.061463998038864	0	1
29.026733367707777	29.02673336770777	0	1
30.491250270136067	28.591794083928772	0	1
32.124836463674548	27.997217334372536	0	1
43.371818584600526	36.627330249075882	0	1
43.499565489507006	38.097112058662582	0	1
40.913198359453645	40.913198359453638	0	1
47.72970773009196	47.729707730091953	0	1
37.971330524320884	32.483390012165174	0	1
35.227360268243032	35.227360268243025	0	1
29.541522177032423	29.541522177032416	0	1
28.061463998038867	29.960920184246152	0	1
24.989656660807981	32.5671546189552	0	1
28.591794083928779	30.49125027013606	0	1
27.997217334372543	32.124836463674541	0	1
38.097112058662589	43.499565489506999	0	1
36.627330249075889	43.371818584600518	0	1
41.091396458088653	53.551350469658374	0	1
32.483390012165181	37.971330524320877	0	1
21.677185269197608	34.859749551666056	0	1
20.525000000000002	35.550342825351201	0	1
22.052185269197608	35.509268604504385	0	1
23.783996149565986	35.357754785101307	0	1
32.41410906426934	46.604736906027284	0	1
32.157095574480721	48.057500446859656	0	1
28.930000000000007	50.108229862967619	0	1
33.750000000000007	58.456714755449603	0	1
28.270168827358624	41.204248845747649	0	1
24.909505328976209	43.144528821194484	0	1
20.889010657952408	36.180827779421342	0	1
19.350836046707208	36.202867901499971	0	1
15.709154898586938	37.925254809588317	0	1
19.725836046707208	36.8523869543383	0	1
18.728715789895539	38.276422261586063	0	1
25.540468442122123	51.877611902854277	0	1
24.15383156517515	51.373810343710318	0	1
25.831131684643569	62.361868444511856	0	1
21.548841830593794	45.084808796641319	0	1
11.916186001295689	39.282400781807169	0	1
10.624521801458485	39.651255169166248	0	1
12.110300285122579	40.006845151523969	0	1
13.822315802776545	40.308719678677932	0	1
19.247431578056151	53.406107760802179	0	1
18.623172738166659	54.742849598377774	0	1
14.975269949631862	55.888468309085482	0	1
17.470285544420165	65.19999327451211	0	1
16.642441843474796	47.11710621373318	0	1
12.894108766443555	48.121469034686569	0	1
10.812947583255248	40.354469760287657	0	1
9.3214805975610275	39.977649999334545	0	1
5.3581001906331256	40.698811559394912	0	1
9.5155948813879174	40.702094369051345	0	1
8.1838832150033998	41.819533137149065	0	1
11.24328410887078	56.720284796829233	0	1
10.034289176201682	55.874761827132026	0	1
8.8105179748534983	66.922528142732205	0	1
9.1457756894123161	49.125831855639959	0	1
40.533570749165946	-5.3363458252631082	0	1
5.3363458252631144	40.533570749165946	0	1
40.368329938936974	-5.3145914598930988	0	1
5.314591459893105	40.368329938936974	0	1
40.716666666666661	0	0	2
2.493176775264153e-015	40.716666666666661	0	2
[NumSegments] = 104
3	2	5	0	0	2
7	6	5	0	0	2
11	10	5	0	0	2
18	20	-1	3	0	2
20	22	-1	2	0	2
19	21	-1	3	0	2
21	22	-1	2	0	2
26	24	5	0	0	1
27	26	5	0	0	1
30	29	5	0	0	1
31	23	-1	8	0	1
33	34	5	0	0	1
35	26	5	0	0	1
33	27	5	0	0	1
28	33	5	0	0	1
38	36	5	0	0	1
39	38	5	0	0	1
30	40	5	0	0	1
42	37	5	0	0	1
43	34	5	0	0	1
35	38	5	0	0	1
43	39	5	0	0	1
41	43	5	0	0	1
46	44	5	0	0	1
47	46	5	0	0	1
50	49	5	0	0	1
52	53	5	0	0	1
54	46	5	0	0	1
52	47	5	0	0	1
48	52	5	0	0	1
57	55	5	0	0	1
58	57	5	0	0	1
50	59	5	0	0	1
61	56	5	0	0	1
62	53	5	0	0	1
54	57	5	0	0	1
62	58	5	0	0	1
60	62	5	0	0	1
65	63	5	0	0	1
66	65	5	0	0	1
69	68	5	0	0	1
71	72	5	0	0	1
73	65	5	0	0	1
71	66	5	0	0	1
67	71	5	0	0	1
76	74	5	0	0	1
77	76	5	0	0	1
69	78	5	0	0	1
80	75	5	0	0	1
81	72	5	0	0	1
73	76	5	0	0	1
81	77	5	0	0	1
79	81	5	0	0	1
84	82	5	0	0	1
85	84	5	0	0	1
88	87	5	0	0	1
90	91	5	0	0	1
92	84	5	0	0	1
90	85	5	0	0	1
86	90	5	0	0	1
95	93	5	0	0	1
96	95	5	0	0	1
88	97	5	0	0	1
99	94	5	0	0	1
100	91	5	0	0	1
92	95	5	0	0	1
100	96	5	0	0	1
98	100	5	0	0	1
103	101	5	0	0	1
104	103	5	0	0	1
107	106	5	0	0	1
109	110	5	0	0	1
111	103	5	0	0	1
109	104	5	0	0	1
105	109	5	0	0	1
114	112	5	0	0	1
115	114	5	0	0	1
107	116	5	0	0	1
118	113	5	0	0	1
119	110	5	0	0	1
111	114	5	0	0	1
119	115	5	0	0	1
117	119	5	0	0	1
122	120	5	0	0	1
123	122	5	0	0	1
126	125	5	0	0	1
128	129	5	0	0	1
130	122	5	0	0	1
128	123	5	0	0	1
<<<<<<< .mine
129	120	5	0	0	1
121	124	5	0	0	1
129	125	5	0	0	1
127	129	5	0	0	1
132	130	5	0	0	1
133	132	5	0	0	1
136	135	5	0	0	1
138	139	5	0	0	1
140	132	5	0	0	1
138	133	5	0	0	1
134	138	5	0	0	1
143	141	5	0	0	1
144	143	5	0	0	1
136	145	5	0	0	1
147	142	-1	8	0	1
148	139	5	0	0	1
140	143	5	0	0	1
148	144	5	0	0	1
146	148	5	0	0	1
149	33	0.5	6	0	1
150	142	0.5	6	0	1
149	151	0.5	5	0	1
150	152	0.5	5	0	1
28	153	0.5	4	0	2
29	154	0.5	4	0	2
[NumArcSegments] = 78
0	1	145.1973464478146	20	0	0	2
2	0	25.326873024941136	4.6725395074006162	0	0	2
2	3	7.3042733042630914	1.5930259392073314	0	0	2
1	4	16.844995862468267	1.6758133068626768	0	0	2
5	6	121.02528542555467	20	0	0	2
7	5	51.688770197015252	16.873666962452909	0	0	2
7	8	22.664233350920597	1.7344003960531487	0	0	2
6	9	30.791459292406131	1.8773070762631683	0	0	2
10	11	98.542081331682027	10	0	0	2
12	10	81.574502811411776	20	0	0	2
12	13	46.014617458424539	2.2423811398624425	0	0	2
16	14	20.69336934911604	2.042332905694257	0	0	2
17	18	145.19734644781477	20	0	0	2
18	19	25.326873024941115	4.67253950740061	0	0	2
3	19	7.3042733042631056	1.5930259392073318	0	0	2
4	17	16.844995862468224	1.6758133068626764	0	0	2
20	21	121.02528542555467	20	0	0	2
21	22	51.688770197015252	16.873666962453214	0	0	2
8	22	22.664233350920583	1.7344003960531482	0	0	2
9	20	30.791459292406103	1.8773070762631681	0	0	2
23	24	98.542081331681885	20	0	0	2
24	25	81.574502811411776	20	0	0	2
13	25	46.014617458424524	2.2423811398624416	0	0	2
26	27	20.693369349116068	2.0423329056942565	0	0	2
28	29	90	1.7662077531776303	0	0	2
30	31	89.999999999999986	4.2656178910871301	0	0	2
33	34	5.6249999999999991	1.7446948694604847	0	0	1
34	35	1.8749999999999998	1.7446948694604851	0	0	1
38	39	95.065177525003705	20	0	0	1
41	42	7.4999999999999991	0.29999999999999999	1	0	1
46	47	5.6249999999999991	1.7446948694604847	0	0	1
35	46	1.8749999999999998	1.7446948694604851	0	0	1
50	51	95.065177525003705	20	0	0	1
42	52	7.4999999999999991	0.93999999999999995	1	0	1
47	54	5.6250000000000018	1.7446948694604849	0	0	1
54	55	1.8749999999999982	1.7446948694604851	0	0	1
58	59	95.065177525003861	20	0	0	1
52	61	7.4999999999999973	0.93999999999999995	1	0	1
65	66	5.6249999999999964	1.7446948694604849	0	0	1
55	65	1.8750000000000018	1.7446948694604851	0	0	1
69	70	95.06517752500352	20	0	0	1
61	71	7.5000000000000018	0.93999999999999995	1	0	1
66	73	5.625	1.7446948694604849	0	0	1
73	74	1.875	1.7446948694604849	0	0	1
77	78	95.065177525003719	20	0	0	1
71	80	7.5	0.93999999999999995	1	0	1
84	85	5.6249999999999893	1.7446948694604854	0	0	1
74	84	1.8750000000000036	1.7446948694604854	0	0	1
88	89	95.065177525003321	20	0	0	1
80	90	7.5	0.93999999999999995	1	0	1
85	92	5.6250000000000071	1.7446948694604851	0	0	1
92	93	1.8749999999999929	1.7446948694604851	0	0	1
96	97	95.065177525004259	20	0	0	1
90	99	7.5000000000000071	0.93999999999999995	1	0	1
103	104	5.625	1.7446948694604849	0	0	1
93	103	1.8750000000000142	1.7446948694604851	0	0	1
107	108	95.065177525004245	20	0	0	1
99	109	7.5	0.93999999999999995	1	0	1
104	111	5.6250000000000071	1.7446948694604854	0	0	1
111	112	1.8749999999999929	1.7446948694604851	0	0	1
115	116	95.065177525003577	20	0	0	1
109	118	7.4999999999999929	0.93999999999999995	1	0	1
122	123	5.6250000000000071	1.7446948694604851	0	0	1
112	122	1.875	1.7446948694604851	0	0	1
126	127	95.065177525003506	20	0	0	1
118	128	7.5000000000000071	0.93999999999999995	1	0	1
123	130	5.6250000000000142	1.7446948694604856	0	0	1
130	131	1.8749999999999858	1.7446948694604849	0	0	1
134	135	95.065177525003804	20	0	0	1
128	137	7.5	0.93999999999999995	1	0	1
141	142	5.6250000000000142	1.7446948694604854	0	0	1
131	141	1.875	1.7446948694604851	0	0	1
145	146	95.065177525003264	20	0	0	1
137	147	7.5000000000000142	0.29999999999999999	1	0	1
149	150	90	0.5	0	0	1
151	153	7.5	0.17000000000000001	7	0	20
153	152	82.5	0.5	0	0	20
152	154	7.5	0.17000000000000001	7	0	20
||||||| .r260
129	120	5	0	0	1
121	124	5	0	0	1
129	125	5	0	0	1
127	129	5	0	0	1
132	130	5	0	0	1
133	132	5	0	0	1
136	135	5	0	0	1
138	139	5	0	0	1
140	132	5	0	0	1
138	133	5	0	0	1
134	138	5	0	0	1
143	141	5	0	0	1
144	143	5	0	0	1
136	145	5	0	0	1
147	142	-1	8	0	1
148	139	5	0	0	1
140	143	5	0	0	1
148	144	5	0	0	1
146	148	5	0	0	1
149	33	0.5	6	0	1
150	142	0.5	6	0	1
149	151	0.5	5	0	1
150	152	0.5	5	0	1
28	153	0.5	4	0	2
29	154	0.5	4	0	2
[NumArcSegments] = 78
0	1	145.1973464478146	20	0	0	2
2	0	25.326873024941136	4.6725395074006162	0	0	2
2	3	7.3042733042630914	1.5930259392073314	0	0	2
1	4	16.844995862468267	1.6758133068626768	0	0	2
5	6	121.02528542555467	20	0	0	2
7	5	51.688770197015252	16.873666962452909	0	0	2
7	8	22.664233350920597	1.7344003960531487	0	0	2
6	9	30.791459292406131	1.8773070762631683	0	0	2
10	11	98.542081331682027	20	0	0	2
12	10	81.574502811411776	20	0	0	2
12	13	46.014617458424539	2.2423811398624425	0	0	2
16	14	20.69336934911604	2.042332905694257	0	0	2
17	18	145.19734644781477	20	0	0	2
18	19	25.326873024941115	4.67253950740061	0	0	2
3	19	7.3042733042631056	1.5930259392073318	0	0	2
4	17	16.844995862468224	1.6758133068626764	0	0	2
20	21	121.02528542555467	20	0	0	2
21	22	51.688770197015252	16.873666962453214	0	0	2
8	22	22.664233350920583	1.7344003960531482	0	0	2
9	20	30.791459292406103	1.8773070762631681	0	0	2
23	24	98.542081331681885	20	0	0	2
24	25	81.574502811411776	20	0	0	2
13	25	46.014617458424524	2.2423811398624416	0	0	2
26	27	20.693369349116068	2.0423329056942565	0	0	2
28	29	90	1.7662077531776303	0	0	2
30	31	89.999999999999986	4.2656178910871301	0	0	2
33	34	5.6249999999999991	1.7446948694604847	0	0	1
34	35	1.8749999999999998	1.7446948694604851	0	0	1
38	39	95.065177525003705	20	0	0	1
41	42	7.4999999999999991	5	1	0	1
46	47	5.6249999999999991	1.7446948694604847	0	0	1
35	46	1.8749999999999998	1.7446948694604851	0	0	1
50	51	95.065177525003705	20	0	0	1
42	52	7.4999999999999991	5	1	0	1
47	54	5.6250000000000018	1.7446948694604849	0	0	1
54	55	1.8749999999999982	1.7446948694604851	0	0	1
58	59	95.065177525003861	20	0	0	1
52	61	7.4999999999999973	5	1	0	1
65	66	5.6249999999999964	1.7446948694604849	0	0	1
55	65	1.8750000000000018	1.7446948694604851	0	0	1
69	70	95.06517752500352	20	0	0	1
61	71	7.5000000000000018	5	1	0	1
66	73	5.625	1.7446948694604849	0	0	1
73	74	1.875	1.7446948694604849	0	0	1
77	78	95.065177525003719	20	0	0	1
71	80	7.5	5	1	0	1
84	85	5.6249999999999893	1.7446948694604854	0	0	1
74	84	1.8750000000000036	1.7446948694604854	0	0	1
88	89	95.065177525003321	20	0	0	1
80	90	7.5	5	1	0	1
85	92	5.6250000000000071	1.7446948694604851	0	0	1
92	93	1.8749999999999929	1.7446948694604851	0	0	1
96	97	95.065177525004259	20	0	0	1
90	99	7.5000000000000071	5	1	0	1
103	104	5.625	1.7446948694604849	0	0	1
93	103	1.8750000000000142	1.7446948694604851	0	0	1
107	108	95.065177525004245	20	0	0	1
99	109	7.5	5	1	0	1
104	111	5.6250000000000071	1.7446948694604854	0	0	1
111	112	1.8749999999999929	1.7446948694604851	0	0	1
115	116	95.065177525003577	20	0	0	1
109	118	7.4999999999999929	5	1	0	1
122	123	5.6250000000000071	1.7446948694604851	0	0	1
112	122	1.875	1.7446948694604851	0	0	1
126	127	95.065177525003506	20	0	0	1
118	128	7.5000000000000071	5	1	0	1
123	130	5.6250000000000142	1.7446948694604856	0	0	1
130	131	1.8749999999999858	1.7446948694604849	0	0	1
134	135	95.065177525003804	20	0	0	1
128	137	7.5	5	1	0	1
141	142	5.6250000000000142	1.7446948694604854	0	0	1
131	141	1.875	1.7446948694604851	0	0	1
145	146	95.065177525003264	20	0	0	1
137	147	7.5000000000000142	5	1	0	1
149	150	90	0.5	0	0	1
151	153	7.5	0.5	7	0	20
153	152	82.5	0.5	0	0	20
152	154	7.5	0.5	7	0	20
=======
124	128	5	0	0	1
133	131	5	0	0	1
134	133	5	0	0	1
126	135	5	0	0	1
137	132	-1	8	0	1
138	129	5	0	0	1
130	133	5	0	0	1
138	134	5	0	0	1
136	138	5	0	0	1
139	23	0.5	6	0	1
140	132	0.5	6	0	1
139	141	0.5	5	0	1
140	142	0.5	5	0	1
18	143	0.5	4	0	2
19	144	0.5	4	0	2
[NumArcSegments] = 72
0	1	180.00000000000023	20	0	0	2
1	2	25.001155012840371	2.9079636840823526	0	0	2
0	3	25.001155012840371	3.4891893208751363	0	0	2
4	5	179.99999999999986	20	0	0	2
5	6	36.928710487360746	2.2640386469762759	0	0	2
4	7	36.928710487360746	2.6014240025302864	0	0	2
8	9	180.00000000000017	20	0	0	2
9	10	41.022565732766338	1.8168365572550524	0	0	2
8	11	41.022565732766338	2.0278894909385099	0	0	2
12	13	180.0000000000004	20	0	0	2
2	12	25.001155012840357	2.9079636840823526	0	0	2
3	13	25.001155012840357	3.4891893208751354	0	0	2
14	15	180.00000000000009	20	0	0	2
6	14	36.928710487360732	2.2640386469762759	0	0	2
7	15	36.928710487360732	2.6014240025302864	0	0	2
16	17	180.00000000000017	20	0	0	2
10	16	41.022565732766338	1.8168365572550527	0	0	2
11	17	41.022565732766338	2.0278894909385099	0	0	2
18	19	90	1.7662077531776303	0	0	2
20	21	89.999999999999986	4.2656178910871301	0	0	2
23	24	5.6249999999999991	1.7446948694604847	0	0	1
24	25	1.8749999999999998	1.7446948694604851	0	0	1
28	29	95.065177525003705	20	0	0	1
31	32	7.4999999999999991	5	1	0	1
36	37	5.6249999999999991	1.7446948694604847	0	0	1
25	36	1.8749999999999998	1.7446948694604851	0	0	1
40	41	95.065177525003705	20	0	0	1
32	42	7.4999999999999991	5	1	0	1
37	44	5.6250000000000018	1.7446948694604849	0	0	1
44	45	1.8749999999999982	1.7446948694604851	0	0	1
48	49	95.065177525003861	20	0	0	1
42	51	7.4999999999999973	5	1	0	1
55	56	5.6249999999999964	1.7446948694604849	0	0	1
45	55	1.8750000000000018	1.7446948694604851	0	0	1
59	60	95.06517752500352	20	0	0	1
51	61	7.5000000000000018	5	1	0	1
56	63	5.625	1.7446948694604849	0	0	1
63	64	1.875	1.7446948694604849	0	0	1
67	68	95.065177525003719	20	0	0	1
61	70	7.5	5	1	0	1
74	75	5.6249999999999893	1.7446948694604854	0	0	1
64	74	1.8750000000000036	1.7446948694604854	0	0	1
78	79	95.065177525003321	20	0	0	1
70	80	7.5	5	1	0	1
75	82	5.6250000000000071	1.7446948694604851	0	0	1
82	83	1.8749999999999929	1.7446948694604851	0	0	1
86	87	95.065177525004259	20	0	0	1
80	89	7.5000000000000071	5	1	0	1
93	94	5.625	1.7446948694604849	0	0	1
83	93	1.8750000000000142	1.7446948694604851	0	0	1
97	98	95.065177525004245	20	0	0	1
89	99	7.5	5	1	0	1
94	101	5.6250000000000071	1.7446948694604854	0	0	1
101	102	1.8749999999999929	1.7446948694604851	0	0	1
105	106	95.065177525003577	20	0	0	1
99	108	7.4999999999999929	5	1	0	1
112	113	5.6250000000000071	1.7446948694604851	0	0	1